
 OpenBabel11062017153D

 53 54  0  0  0  0  0  0  0  0999 V2000
    0.5579   -0.9379   -2.6325 C   0  0  0  0  0  0  0  0  0  0  0  0
    1.0218   -0.5041   -1.2665 C   0  0  0  0  0  0  0  0  0  0  0  0
    0.7203   -1.2490   -0.1879 C   0  0  0  0  0  0  0  0  0  0  0  0
    1.8297    0.7815   -1.1491 C   0  0  2  0  0  0  0  0  0  0  0  0
    3.2565    0.5126   -0.5813 C   0  0  2  0  0  0  0  0  0  0  0  0
    1.1270    1.8207   -0.2774 C   0  0  0  0  0  0  0  0  0  0  0  0
    3.9875    1.7878   -0.2054 C   0  0  0  0  0  0  0  0  0  0  0  0
    4.0838   -0.3026   -1.5750 C   0  0  0  0  0  0  0  0  0  0  0  0
    1.8898    3.1530   -0.3506 C   0  0  0  0  0  0  0  0  0  0  0  0
    3.3806    2.9933   -0.1305 C   0  0  0  0  0  0  0  0  0  0  0  0
    4.4906   -1.6177   -1.2495 C   0  0  0  0  0  0  0  0  0  0  0  0
    4.4584    0.2352   -2.8309 C   0  0  0  0  0  0  0  0  0  0  0  0
    4.1833    4.2291    0.1747 C   0  0  0  0  0  0  0  0  0  0  0  0
    4.1505   -2.1639   -0.0621 O   0  0  0  0  0  0  0  0  0  0  0  0
    5.2458   -2.3685   -2.1616 C   0  0  0  0  0  0  0  0  0  0  0  0
    4.1011    1.4924   -3.1700 O   0  0  0  0  0  0  0  0  0  0  0  0
    5.2135   -0.5318   -3.7295 C   0  0  0  0  0  0  0  0  0  0  0  0
    5.6133   -1.8334   -3.4029 C   0  0  0  0  0  0  0  0  0  0  0  0
    6.4232   -2.6511   -4.3805 C   0  0  0  0  0  0  0  0  0  0  0  0
    7.8074   -2.9999   -3.8150 C   0  0  0  0  0  0  0  0  0  0  0  0
    8.6214   -3.8208   -4.8223 C   0  0  0  0  0  0  0  0  0  0  0  0
   10.0058   -4.1644   -4.2606 C   0  0  0  0  0  0  0  0  0  0  0  0
   10.8186   -4.9819   -5.2603 C   0  0  0  0  0  0  0  0  0  0  0  0
   -0.0195   -1.8867   -2.5991 H   0  0  0  0  0  0  0  0  0  0  0  0
   -0.0899   -0.1500   -3.0704 H   0  0  0  0  0  0  0  0  0  0  0  0
    1.4398   -1.0893   -3.2901 H   0  0  0  0  0  0  0  0  0  0  0  0
    1.0408   -0.9582    0.8066 H   0  0  0  0  0  0  0  0  0  0  0  0
    0.1446   -2.1646   -0.2815 H   0  0  0  0  0  0  0  0  0  0  0  0
    1.9025    1.2327   -2.1620 H   0  0  0  0  0  0  0  0  0  0  0  0
    3.1608   -0.0413    0.3751 H   0  0  0  0  0  0  0  0  0  0  0  0
    0.0797    1.9911   -0.6096 H   0  0  0  0  0  0  0  0  0  0  0  0
    1.1060    1.4593    0.7747 H   0  0  0  0  0  0  0  0  0  0  0  0
    5.0494    1.7084    0.0133 H   0  0  0  0  0  0  0  0  0  0  0  0
    1.4563    3.8133    0.4312 H   0  0  0  0  0  0  0  0  0  0  0  0
    1.7455    3.6444   -1.3370 H   0  0  0  0  0  0  0  0  0  0  0  0
    5.2625    4.0048    0.3147 H   0  0  0  0  0  0  0  0  0  0  0  0
    4.0829    4.9505   -0.6630 H   0  0  0  0  0  0  0  0  0  0  0  0
    3.8014    4.6993    1.1050 H   0  0  0  0  0  0  0  0  0  0  0  0
    4.4096   -3.0616    0.1906 H   0  0  0  0  0  0  0  0  0  0  0  0
    5.5435   -3.3765   -1.9005 H   0  0  0  0  0  0  0  0  0  0  0  0
    4.3427    1.8913   -4.0180 H   0  0  0  0  0  0  0  0  0  0  0  0
    5.4920   -0.1057   -4.6858 H   0  0  0  0  0  0  0  0  0  0  0  0
    5.8634   -3.5812   -4.6206 H   0  0  0  0  0  0  0  0  0  0  0  0
    6.5660   -2.0845   -5.3272 H   0  0  0  0  0  0  0  0  0  0  0  0
    7.6965   -3.5875   -2.8782 H   0  0  0  0  0  0  0  0  0  0  0  0
    8.3521   -2.0580   -3.5828 H   0  0  0  0  0  0  0  0  0  0  0  0
    8.7417   -3.2363   -5.7612 H   0  0  0  0  0  0  0  0  0  0  0  0
    8.0754   -4.7621   -5.0542 H   0  0  0  0  0  0  0  0  0  0  0  0
   10.5585   -3.2276   -4.0298 H   0  0  0  0  0  0  0  0  0  0  0  0
    9.8937   -4.7525   -3.3236 H   0  0  0  0  0  0  0  0  0  0  0  0
   11.8142   -5.2157   -4.8278 H   0  0  0  0  0  0  0  0  0  0  0  0
   10.2987   -5.9358   -5.4923 H   0  0  0  0  0  0  0  0  0  0  0  0
   10.9651   -4.4079   -6.2000 H   0  0  0  0  0  0  0  0  0  0  0  0
  1  2  1  0  0  0  0
  1 24  1  0  0  0  0
  1 25  1  0  0  0  0
  1 26  1  0  0  0  0
  2  3  2  0  0  0  0
  3 27  1  0  0  0  0
  3 28  1  0  0  0  0
  4  2  1  0  0  0  0
  4  5  1  1  0  0  0
  4  6  1  0  0  0  0
  4 29  1  0  0  0  0
  5  8  1  0  0  0  0
  5 30  1  1  0  0  0
  6  9  1  0  0  0  0
  6 31  1  0  0  0  0
  6 32  1  0  0  0  0
  7  5  1  0  0  0  0
  7 33  1  0  0  0  0
  8 11  1  0  0  0  0
  8 12  2  0  0  0  0
  9 10  1  0  0  0  0
  9 34  1  0  0  0  0
  9 35  1  0  0  0  0
 10  7  2  0  0  0  0
 10 13  1  0  0  0  0
 11 14  1  0  0  0  0
 11 15  2  0  0  0  0
 12 16  1  0  0  0  0
 13 36  1  0  0  0  0
 13 37  1  0  0  0  0
 13 38  1  0  0  0  0
 14 39  1  0  0  0  0
 15 18  1  0  0  0  0
 15 40  1  0  0  0  0
 16 41  1  0  0  0  0
 17 12  1  0  0  0  0
 17 42  1  0  0  0  0
 18 19  1  0  0  0  0
 18 17  2  0  0  0  0
 19 20  1  0  0  0  0
 19 43  1  0  0  0  0
 19 44  1  0  0  0  0
 20 21  1  0  0  0  0
 20 45  1  0  0  0  0
 20 46  1  0  0  0  0
 21 22  1  0  0  0  0
 21 47  1  0  0  0  0
 21 48  1  0  0  0  0
 22 23  1  0  0  0  0
 22 49  1  0  0  0  0
 22 50  1  0  0  0  0
 23 51  1  0  0  0  0
 23 52  1  0  0  0  0
 23 53  1  0  0  0  0
M  END
