
 OpenBabel11042022593D

 59 58  0  0  0  0  0  0  0  0999 V2000
   20.5109    6.6411    0.3723 C   0  0  0  0  0  0  0  0  0  0  0  0
   19.2766    6.9350    0.9129 O   0  0  0  0  0  0  0  0  0  0  0  0
   18.1006    6.1836   -0.8429 O   0  0  0  0  0  0  0  0  0  0  0  0
   20.5944    5.5503    0.1775 H   0  0  0  0  0  0  0  0  0  0  0  0
   20.6593    7.2045   -0.5739 H   0  0  0  0  0  0  0  0  0  0  0  0
   21.3024    6.9366    1.0911 H   0  0  0  0  0  0  0  0  0  0  0  0
   18.1048    6.6900    0.2723 C   0  0  0  0  0  0  0  0  0  0  0  0
   16.8121    7.0517    0.9568 C   0  0  0  0  0  0  0  0  0  0  0  0
    9.2501    8.3116    0.8887 H   0  0  0  0  0  0  0  0  0  0  0  0
   -3.4654    6.9446    1.1558 H   0  0  0  0  0  0  0  0  0  0  0  0
   -4.2693    7.2508   -0.4307 H   0  0  0  0  0  0  0  0  0  0  0  0
   15.5686    6.7194    0.1181 C   0  0  0  0  0  0  0  0  0  0  0  0
   16.7623    6.4984    1.9195 H   0  0  0  0  0  0  0  0  0  0  0  0
   16.8267    8.1418    1.1729 H   0  0  0  0  0  0  0  0  0  0  0  0
   14.2844    7.1073    0.8609 C   0  0  0  0  0  0  0  0  0  0  0  0
   15.5518    5.6278   -0.0962 H   0  0  0  0  0  0  0  0  0  0  0  0
   15.6164    7.2752   -0.8446 H   0  0  0  0  0  0  0  0  0  0  0  0
   13.0431    6.7759    0.0240 C   0  0  0  0  0  0  0  0  0  0  0  0
   14.2362    6.5529    1.8242 H   0  0  0  0  0  0  0  0  0  0  0  0
   14.3008    8.1985    1.0766 H   0  0  0  0  0  0  0  0  0  0  0  0
   11.7590    7.1637    0.7669 C   0  0  0  0  0  0  0  0  0  0  0  0
   13.0267    5.6846   -0.1916 H   0  0  0  0  0  0  0  0  0  0  0  0
   13.0913    7.3303   -0.9392 H   0  0  0  0  0  0  0  0  0  0  0  0
   10.5177    6.8324   -0.0699 C   0  0  0  0  0  0  0  0  0  0  0  0
   11.7108    6.6093    1.7302 H   0  0  0  0  0  0  0  0  0  0  0  0
   11.7754    8.2550    0.9826 H   0  0  0  0  0  0  0  0  0  0  0  0
    9.2337    7.2203    0.6730 C   0  0  0  0  0  0  0  0  0  0  0  0
   10.5012    5.7411   -0.2856 H   0  0  0  0  0  0  0  0  0  0  0  0
   10.5659    7.3868   -1.0332 H   0  0  0  0  0  0  0  0  0  0  0  0
    7.9923    6.8890   -0.1637 C   0  0  0  0  0  0  0  0  0  0  0  0
    9.1855    6.6659    1.6363 H   0  0  0  0  0  0  0  0  0  0  0  0
    6.7083    7.2770    0.5792 C   0  0  0  0  0  0  0  0  0  0  0  0
   -3.4004    8.5923    0.4072 H   0  0  0  0  0  0  0  0  0  0  0  0
    8.0405    7.4435   -1.1270 H   0  0  0  0  0  0  0  0  0  0  0  0
    7.9758    5.7978   -0.3794 H   0  0  0  0  0  0  0  0  0  0  0  0
    5.4669    6.9458   -0.2575 C   0  0  0  0  0  0  0  0  0  0  0  0
    6.7249    8.3683    0.7949 H   0  0  0  0  0  0  0  0  0  0  0  0
    6.6601    6.7226    1.5425 H   0  0  0  0  0  0  0  0  0  0  0  0
    4.1830    7.3339    0.4855 C   0  0  0  0  0  0  0  0  0  0  0  0
    5.4503    5.8545   -0.4731 H   0  0  0  0  0  0  0  0  0  0  0  0
    5.5151    7.5002   -1.2208 H   0  0  0  0  0  0  0  0  0  0  0  0
    2.9414    7.0027   -0.3511 C   0  0  0  0  0  0  0  0  0  0  0  0
    4.1348    6.7795    1.4488 H   0  0  0  0  0  0  0  0  0  0  0  0
    4.1996    8.4252    0.7012 H   0  0  0  0  0  0  0  0  0  0  0  0
    1.6576    7.3909    0.3919 C   0  0  0  0  0  0  0  0  0  0  0  0
    2.9897    7.5572   -1.3144 H   0  0  0  0  0  0  0  0  0  0  0  0
    2.9248    5.9115   -0.5668 H   0  0  0  0  0  0  0  0  0  0  0  0
    0.4160    7.0597   -0.4447 C   0  0  0  0  0  0  0  0  0  0  0  0
    1.6742    8.4821    0.6076 H   0  0  0  0  0  0  0  0  0  0  0  0
    1.6094    6.8364    1.3552 H   0  0  0  0  0  0  0  0  0  0  0  0
   -0.8678    7.4479    0.2983 C   0  0  0  0  0  0  0  0  0  0  0  0
    0.4642    7.6142   -1.4080 H   0  0  0  0  0  0  0  0  0  0  0  0
    0.3993    5.9685   -0.6604 H   0  0  0  0  0  0  0  0  0  0  0  0
   -2.1087    7.1166   -0.5386 C   0  0  0  0  0  0  0  0  0  0  0  0
   -0.9164    6.8934    1.2616 H   0  0  0  0  0  0  0  0  0  0  0  0
   -0.8515    8.5392    0.5140 H   0  0  0  0  0  0  0  0  0  0  0  0
   -3.3887    7.5015    0.1976 C   0  0  0  0  0  0  0  0  0  0  0  0
   -2.0687    7.6706   -1.5019 H   0  0  0  0  0  0  0  0  0  0  0  0
   -2.1336    6.0262   -0.7549 H   0  0  0  0  0  0  0  0  0  0  0  0
  1  2  1  0  0  0  0
  1  4  1  0  0  0  0
  1  5  1  0  0  0  0
  1  6  1  0  0  0  0
  2  7  1  0  0  0  0
  7  3  2  0  0  0  0
  7  8  1  0  0  0  0
  8 12  1  0  0  0  0
  8 13  1  0  0  0  0
  8 14  1  0  0  0  0
 12 15  1  0  0  0  0
 12 16  1  0  0  0  0
 12 17  1  0  0  0  0
 15 18  1  0  0  0  0
 15 19  1  0  0  0  0
 15 20  1  0  0  0  0
 18 21  1  0  0  0  0
 18 22  1  0  0  0  0
 18 23  1  0  0  0  0
 21 24  1  0  0  0  0
 21 25  1  0  0  0  0
 21 26  1  0  0  0  0
 24 27  1  0  0  0  0
 24 28  1  0  0  0  0
 24 29  1  0  0  0  0
 27  9  1  0  0  0  0
 27 30  1  0  0  0  0
 27 31  1  0  0  0  0
 30 32  1  0  0  0  0
 30 34  1  0  0  0  0
 30 35  1  0  0  0  0
 32 36  1  0  0  0  0
 32 37  1  0  0  0  0
 32 38  1  0  0  0  0
 36 39  1  0  0  0  0
 36 40  1  0  0  0  0
 36 41  1  0  0  0  0
 39 42  1  0  0  0  0
 39 43  1  0  0  0  0
 39 44  1  0  0  0  0
 42 45  1  0  0  0  0
 42 46  1  0  0  0  0
 42 47  1  0  0  0  0
 45 48  1  0  0  0  0
 45 49  1  0  0  0  0
 45 50  1  0  0  0  0
 48 51  1  0  0  0  0
 48 52  1  0  0  0  0
 48 53  1  0  0  0  0
 51 54  1  0  0  0  0
 51 55  1  0  0  0  0
 51 56  1  0  0  0  0
 54 57  1  0  0  0  0
 54 58  1  0  0  0  0
 54 59  1  0  0  0  0
 57 10  1  0  0  0  0
 57 11  1  0  0  0  0
 57 33  1  0  0  0  0
M  END
