
 OpenBabel01072110523D

 56 55  0  0  0  0  0  0  0  0999 V2000
   -2.8948   -6.5731   -2.0135 C   0  0  0  0  0  0  0  0  0  0  0  0
   -1.7112   -6.1160   -2.4791 O   0  0  0  0  0  0  0  0  0  0  0  0
   -1.6096   -5.8153   -3.3933 H   0  0  0  0  0  0  0  0  0  0  0  0
   -3.8640   -6.6118   -2.7563 O   0  0  0  0  0  0  0  0  0  0  0  0
   -3.0417   -7.0367   -0.5880 C   0  0  0  0  0  0  0  0  0  0  0  0
   -1.7331   -6.9220    0.2077 C   0  0  0  0  0  0  0  0  0  0  0  0
   -3.3755   -8.0971   -0.5963 H   0  0  0  0  0  0  0  0  0  0  0  0
   -3.8254   -6.4195   -0.0967 H   0  0  0  0  0  0  0  0  0  0  0  0
   -1.9298   -7.3886    1.6543 C   0  0  0  0  0  0  0  0  0  0  0  0
   -1.4401   -5.8567    0.1979 H   0  0  0  0  0  0  0  0  0  0  0  0
   -0.9539   -7.5482   -0.2800 H   0  0  0  0  0  0  0  0  0  0  0  0
   -0.6555   -7.4986    2.5203 C   0  0  0  0  0  0  0  0  0  0  0  0
   -2.3683   -8.4108    1.6248 H   0  0  0  0  0  0  0  0  0  0  0  0
   -2.6624   -6.7190    2.1563 H   0  0  0  0  0  0  0  0  0  0  0  0
    0.1093   -6.1977    2.8380 C   0  0  0  0  0  0  0  0  0  0  0  0
   -1.0181   -7.8892    3.4971 H   0  0  0  0  0  0  0  0  0  0  0  0
    0.0440   -8.2576    2.1070 H   0  0  0  0  0  0  0  0  0  0  0  0
    1.0584   -5.7173    1.7253 C   0  0  0  0  0  0  0  0  0  0  0  0
   -0.6060   -5.4037    3.1441 H   0  0  0  0  0  0  0  0  0  0  0  0
    0.7609   -6.4219    3.7119 H   0  0  0  0  0  0  0  0  0  0  0  0
    1.8357   -4.4695    2.1752 C   0  0  0  0  0  0  0  0  0  0  0  0
    0.5059   -5.4717    0.8117 H   0  0  0  0  0  0  0  0  0  0  0  0
    1.7798   -6.5309    1.4922 H   0  0  0  0  0  0  0  0  0  0  0  0
    2.8705   -3.9875    1.1435 C   0  0  0  0  0  0  0  0  0  0  0  0
    2.3860   -4.7124    3.1108 H   0  0  0  0  0  0  0  0  0  0  0  0
    1.1237   -3.6446    2.3976 H   0  0  0  0  0  0  0  0  0  0  0  0
    2.2389   -3.5232   -0.1821 C   0  0  0  0  0  0  0  0  0  0  0  0
    3.4134   -3.1271    1.5925 H   0  0  0  0  0  0  0  0  0  0  0  0
    3.5997   -4.8046    0.9628 H   0  0  0  0  0  0  0  0  0  0  0  0
    3.2585   -2.9118   -1.1576 C   0  0  0  0  0  0  0  0  0  0  0  0
    1.4820   -2.7409    0.0453 H   0  0  0  0  0  0  0  0  0  0  0  0
    1.7272   -4.3672   -0.6896 H   0  0  0  0  0  0  0  0  0  0  0  0
    4.3231   -3.9183   -1.6314 C   0  0  0  0  0  0  0  0  0  0  0  0
    2.6963   -2.5517   -2.0469 H   0  0  0  0  0  0  0  0  0  0  0  0
    3.7369   -2.0374   -0.6693 H   0  0  0  0  0  0  0  0  0  0  0  0
    5.2561   -3.3493   -2.7137 C   0  0  0  0  0  0  0  0  0  0  0  0
    4.9398   -4.2658   -0.7763 H   0  0  0  0  0  0  0  0  0  0  0  0
    3.8028   -4.7986   -2.0683 H   0  0  0  0  0  0  0  0  0  0  0  0
    6.1113   -2.1702   -2.2245 C   0  0  0  0  0  0  0  0  0  0  0  0
    4.6526   -3.0361   -3.5939 H   0  0  0  0  0  0  0  0  0  0  0  0
    5.9361   -4.1688   -3.0349 H   0  0  0  0  0  0  0  0  0  0  0  0
    7.0664   -1.6942   -3.3276 C   0  0  0  0  0  0  0  0  0  0  0  0
    5.4518   -1.3278   -1.9317 H   0  0  0  0  0  0  0  0  0  0  0  0
    6.7065   -2.4886   -1.3406 H   0  0  0  0  0  0  0  0  0  0  0  0
    7.9550   -0.5354   -2.8536 C   0  0  0  0  0  0  0  0  0  0  0  0
    6.4873   -1.3847   -4.2253 H   0  0  0  0  0  0  0  0  0  0  0  0
    7.7279   -2.5405   -3.6155 H   0  0  0  0  0  0  0  0  0  0  0  0
    7.1647    0.7048   -2.4195 C   0  0  0  0  0  0  0  0  0  0  0  0
    8.6791   -0.2627   -3.6524 H   0  0  0  0  0  0  0  0  0  0  0  0
    8.6791   -0.2627   -3.6524 H   0  0  0  0  0  0  0  0  0  0  0  0
    6.3724    1.3052   -3.5764 C   0  0  0  0  0  0  0  0  0  0  0  0
    7.8643    1.4652   -2.0101 H   0  0  0  0  0  0  0  0  0  0  0  0
    7.8643    1.4652   -2.0101 H   0  0  0  0  0  0  0  0  0  0  0  0
    5.7816    2.1752   -3.2210 H   0  0  0  0  0  0  0  0  0  0  0  0
    5.7816    2.1752   -3.2210 H   0  0  0  0  0  0  0  0  0  0  0  0
    5.7816    2.1752   -3.2210 H   0  0  0  0  0  0  0  0  0  0  0  0
  1  2  1  0  0  0  0
  1  4  2  0  0  0  0
  1  5  1  0  0  0  0
  2  3  1  0  0  0  0
  5  6  1  0  0  0  0
  5  7  1  0  0  0  0
  5  8  1  0  0  0  0
  6  9  1  0  0  0  0
  6 10  1  0  0  0  0
  6 11  1  0  0  0  0
  9 12  1  0  0  0  0
  9 13  1  0  0  0  0
  9 14  1  0  0  0  0
 12 15  1  0  0  0  0
 12 16  1  0  0  0  0
 12 17  1  0  0  0  0
 15 18  1  0  0  0  0
 15 19  1  0  0  0  0
 15 20  1  0  0  0  0
 18 21  1  0  0  0  0
 18 22  1  0  0  0  0
 18 23  1  0  0  0  0
 21 24  1  0  0  0  0
 21 25  1  0  0  0  0
 21 26  1  0  0  0  0
 24 27  1  0  0  0  0
 24 28  1  0  0  0  0
 24 29  1  0  0  0  0
 27 30  1  0  0  0  0
 27 31  1  0  0  0  0
 27 32  1  0  0  0  0
 30 33  1  0  0  0  0
 30 34  1  0  0  0  0
 30 35  1  0  0  0  0
 33 36  1  0  0  0  0
 33 37  1  0  0  0  0
 33 38  1  0  0  0  0
 36 39  1  0  0  0  0
 36 40  1  0  0  0  0
 36 41  1  0  0  0  0
 39 42  1  0  0  0  0
 39 43  1  0  0  0  0
 39 44  1  0  0  0  0
 42 45  1  0  0  0  0
 42 46  1  0  0  0  0
 42 47  1  0  0  0  0
 45 48  1  0  0  0  0
 45 49  1  0  0  0  0
 45 50  1  0  0  0  0
 48 51  1  0  0  0  0
 48 52  1  0  0  0  0
 48 53  1  0  0  0  0
 51 54  1  0  0  0  0
 51 55  1  0  0  0  0
 51 56  1  0  0  0  0
M  END
