
 OpenBabel12222017223D

 53 55  0  0  0  0  0  0  0  0999 V2000
    1.2386    0.1047   -0.4561 O   0  0  0  0  0  0  0  0  0  0  0  0
    2.6352    0.0662   -0.3085 C   0  0  1  0  0  0  0  0  0  0  0  0
    3.0162    0.9635    0.8646 C   0  0  0  0  0  0  0  0  0  0  0  0
    3.1206   -1.3874   -0.1500 C   0  0  0  0  0  0  0  0  0  0  0  0
    2.9097    2.4477    0.7496 C   0  0  0  0  0  0  0  0  0  0  0  0
    3.4551    0.4351    2.0329 C   0  0  0  0  0  0  0  0  0  0  0  0
    2.7603   -1.9009    1.2435 C   0  0  2  0  0  0  0  0  0  0  0  0
    3.3069    3.2560    1.8370 C   0  0  0  0  0  0  0  0  0  0  0  0
    2.4236    3.0640   -0.4242 C   0  0  0  0  0  0  0  0  0  0  0  0
    3.8478    1.2331    3.0586 O   0  0  0  0  0  0  0  0  0  0  0  0
    3.5363   -1.0558    2.2755 C   0  0  0  0  0  0  0  0  0  0  0  0
    3.0854   -3.3972    1.4572 C   0  0  0  0  0  0  0  0  0  0  0  0
    3.8374    2.6195    3.1211 C   0  0  0  0  0  0  0  0  0  0  0  0
    3.2117    4.6583    1.7238 C   0  0  0  0  0  0  0  0  0  0  0  0
    2.3328    4.4593   -0.5213 C   0  0  0  0  0  0  0  0  0  0  0  0
    2.2711   -4.3355    0.5519 C   0  0  0  0  0  0  0  0  0  0  0  0
    5.2824    3.0795    3.3750 C   0  0  0  0  0  0  0  0  0  0  0  0
    2.9447    3.0142    4.3095 C   0  0  0  0  0  0  0  0  0  0  0  0
    2.7301    5.2506    0.5584 C   0  0  0  0  0  0  0  0  0  0  0  0
    1.8154    5.1141   -1.7688 C   0  0  0  0  0  0  0  0  0  0  0  0
    2.5849   -5.8042    0.8635 C   0  0  0  0  0  0  0  0  0  0  0  0
    1.7694   -6.7434   -0.0328 C   0  0  0  0  0  0  0  0  0  0  0  0
    2.0793   -8.2055    0.2748 C   0  0  0  0  0  0  0  0  0  0  0  0
    1.0415   -0.0973   -1.4080 H   0  0  0  0  0  0  0  0  0  0  0  0
    3.1334    0.4488   -1.2298 H   0  0  0  0  0  0  0  0  0  0  0  0
    4.2269   -1.4353   -0.2664 H   0  0  0  0  0  0  0  0  0  0  0  0
    2.6663   -1.9872   -0.9645 H   0  0  0  0  0  0  0  0  0  0  0  0
    1.6673   -1.7534    1.3996 H   0  0  0  0  0  0  0  0  0  0  0  0
    2.1096    2.4722   -1.2718 H   0  0  0  0  0  0  0  0  0  0  0  0
    3.1099   -1.2869    3.2760 H   0  0  0  0  0  0  0  0  0  0  0  0
    4.6161   -1.3208    2.2926 H   0  0  0  0  0  0  0  0  0  0  0  0
    2.8447   -3.6532    2.5131 H   0  0  0  0  0  0  0  0  0  0  0  0
    4.1721   -3.5731    1.2952 H   0  0  0  0  0  0  0  0  0  0  0  0
    3.5103    5.3029    2.5394 H   0  0  0  0  0  0  0  0  0  0  0  0
    2.5114   -4.1454   -0.5143 H   0  0  0  0  0  0  0  0  0  0  0  0
    1.1868   -4.1508    0.7168 H   0  0  0  0  0  0  0  0  0  0  0  0
    5.9331    2.7763    2.5265 H   0  0  0  0  0  0  0  0  0  0  0  0
    5.6793    2.6103    4.3010 H   0  0  0  0  0  0  0  0  0  0  0  0
    5.3476    4.1813    3.4946 H   0  0  0  0  0  0  0  0  0  0  0  0
    1.9037    2.6654    4.1362 H   0  0  0  0  0  0  0  0  0  0  0  0
    2.9281    4.1131    4.4654 H   0  0  0  0  0  0  0  0  0  0  0  0
    3.3170    2.5424    5.2444 H   0  0  0  0  0  0  0  0  0  0  0  0
    2.6664    6.3303    0.4977 H   0  0  0  0  0  0  0  0  0  0  0  0
    1.5382    4.3655   -2.5412 H   0  0  0  0  0  0  0  0  0  0  0  0
    2.5964    5.7804   -2.1919 H   0  0  0  0  0  0  0  0  0  0  0  0
    0.9150    5.7175   -1.5275 H   0  0  0  0  0  0  0  0  0  0  0  0
    2.3431   -6.0141    1.9289 H   0  0  0  0  0  0  0  0  0  0  0  0
    3.6695   -5.9903    0.6994 H   0  0  0  0  0  0  0  0  0  0  0  0
    2.0086   -6.5432   -1.1001 H   0  0  0  0  0  0  0  0  0  0  0  0
    0.6838   -6.5652    0.1290 H   0  0  0  0  0  0  0  0  0  0  0  0
    3.1557   -8.4171    0.0999 H   0  0  0  0  0  0  0  0  0  0  0  0
    1.4759   -8.8613   -0.3876 H   0  0  0  0  0  0  0  0  0  0  0  0
    1.8282   -8.4395    1.3313 H   0  0  0  0  0  0  0  0  0  0  0  0
  1  2  1  0  0  0  0
  1 24  1  0  0  0  0
  2  3  1  0  0  0  0
  2 25  1  6  0  0  0
  3  5  1  0  0  0  0
  4  2  1  0  0  0  0
  4 26  1  0  0  0  0
  4 27  1  0  0  0  0
  5  9  1  0  0  0  0
  6  3  2  0  0  0  0
  6 11  1  0  0  0  0
  7  4  1  0  0  0  0
  7 12  1  0  0  0  0
  7 28  1  1  0  0  0
  8  5  2  0  0  0  0
  8 13  1  0  0  0  0
  9 15  2  0  0  0  0
  9 29  1  0  0  0  0
 10  6  1  0  0  0  0
 11  7  1  0  0  0  0
 11 30  1  0  0  0  0
 11 31  1  0  0  0  0
 12 16  1  0  0  0  0
 12 32  1  0  0  0  0
 12 33  1  0  0  0  0
 13 10  1  0  0  0  0
 13 17  1  0  0  0  0
 13 18  1  0  0  0  0
 14  8  1  0  0  0  0
 14 34  1  0  0  0  0
 15 19  1  0  0  0  0
 15 20  1  0  0  0  0
 16 21  1  0  0  0  0
 16 35  1  0  0  0  0
 16 36  1  0  0  0  0
 17 37  1  0  0  0  0
 17 38  1  0  0  0  0
 17 39  1  0  0  0  0
 18 40  1  0  0  0  0
 18 41  1  0  0  0  0
 18 42  1  0  0  0  0
 19 14  2  0  0  0  0
 19 43  1  0  0  0  0
 20 44  1  0  0  0  0
 20 45  1  0  0  0  0
 20 46  1  0  0  0  0
 21 22  1  0  0  0  0
 21 47  1  0  0  0  0
 21 48  1  0  0  0  0
 22 23  1  0  0  0  0
 22 49  1  0  0  0  0
 22 50  1  0  0  0  0
 23 51  1  0  0  0  0
 23 52  1  0  0  0  0
 23 53  1  0  0  0  0
M  END
