
 OpenBabel11132012403D

 18 18  0  0  0  0  0  0  0  0999 V2000
    0.2219   -0.5845    1.3272 N   0  3  0  0  0  0  0  0  0  0  0  0
   -2.4165   -1.9857    3.4257 C   0  0  0  0  0  0  0  0  0  0  0  0
    0.5400   -2.0285    2.9972 C   0  0  0  0  0  0  0  0  0  0  0  0
   -1.7025   -0.3143    0.8995 C   0  0  0  0  0  0  0  0  0  0  0  0
   -0.8575   -2.4760    3.8491 C   0  0  0  0  0  0  0  0  0  0  0  0
   -2.9035   -1.0848    2.3174 C   0  0  0  0  0  0  0  0  0  0  0  0
    1.7043   -0.1345    0.4543 C   0  0  0  0  0  0  0  0  0  0  0  0
   -3.7157   -2.6014    4.5501 C   0  0  0  0  0  0  0  0  0  0  0  0
    1.6337   -2.6522    3.8978 H   0  0  0  0  0  0  0  0  0  0  0  0
   -2.0418    0.1889   -0.0188 H   0  0  0  0  0  0  0  0  0  0  0  0
   -0.7295   -3.3106    5.0735 H   0  0  0  0  0  0  0  0  0  0  0  0
   -4.6082   -0.6504    2.0266 H   0  0  0  0  0  0  0  0  0  0  0  0
    1.4462    0.4704   -0.3095 H   0  0  0  0  0  0  0  0  0  0  0  0
    2.7917   -1.0585    0.0217 H   0  0  0  0  0  0  0  0  0  0  0  0
    2.7917    0.4032    0.9790 H   0  0  0  0  0  0  0  0  0  0  0  0
   -3.5694   -3.1520    5.2418 H   0  0  0  0  0  0  0  0  0  0  0  0
   -4.8095   -3.5589    4.8382 H   0  0  0  0  0  0  0  0  0  0  0  0
   -4.2292   -1.5002    4.4714 H   0  0  0  0  0  0  0  0  0  0  0  0
  1  3  2  0  0  0  0
  1  4  1  0  0  0  0
  1  7  1  0  0  0  0
  2  5  2  0  0  0  0
  2  6  1  0  0  0  0
  2  8  1  0  0  0  0
  3  5  1  0  0  0  0
  3  9  1  0  0  0  0
  4  6  2  0  0  0  0
  4 10  1  0  0  0  0
  5 11  1  0  0  0  0
  6 12  1  0  0  0  0
  7 13  1  0  0  0  0
  7 14  1  0  0  0  0
  7 15  1  0  0  0  0
  8 16  1  0  0  0  0
  8 17  1  0  0  0  0
  8 18  1  0  0  0  0
M  CHG  1   1   1
M  END
