
 OpenBabel11102022303D

 23 23  0  0  0  0  0  0  0  0999 V2000
   -0.9958   -0.3764    0.1951 C   0  0  0  0  0  0  0  0  0  0  0  0
    0.2209   -1.2951    0.2027 C   0  0  0  0  0  0  0  0  0  0  0  0
   -1.6918   -0.3084    1.5565 C   0  0  0  0  0  0  0  0  0  0  0  0
   -1.7127   -0.7824   -0.5321 H   0  0  0  0  0  0  0  0  0  0  0  0
   -0.7320    0.6283   -0.1559 H   0  0  0  0  0  0  0  0  0  0  0  0
   -4.0568    0.8140    1.3373 N   0  0  0  0  0  0  0  0  0  0  0  0
   -3.0132    0.3211    1.4405 C   0  0  0  0  0  0  0  0  0  0  0  0
   -1.0782    0.2562    2.2654 H   0  0  0  0  0  0  0  0  0  0  0  0
   -1.8154   -1.3163    1.9695 H   0  0  0  0  0  0  0  0  0  0  0  0
    1.5176   -0.6257    0.3957 N   0  0  0  0  0  0  0  0  0  0  0  0
    0.2672   -1.8020   -0.7696 H   0  0  0  0  0  0  0  0  0  0  0  0
    0.1402   -2.0779    0.9649 H   0  0  0  0  0  0  0  0  0  0  0  0
    1.8616    0.1986    1.3997 C   0  0  0  0  0  0  0  0  0  0  0  0
    2.6433   -0.8676   -0.3883 C   0  0  0  0  0  0  0  0  0  0  0  0
    3.6901   -0.2180    0.1991 C   0  0  0  0  0  0  0  0  0  0  0  0
    2.5609   -1.5067   -1.2514 H   0  0  0  0  0  0  0  0  0  0  0  0
    3.1816    0.4266    1.3119 N   0  0  0  0  0  0  0  0  0  0  0  0
    1.2077    0.5881    2.1694 H   0  0  0  0  0  0  0  0  0  0  0  0
    4.7418   -0.1450   -0.0204 H   0  0  0  0  0  0  0  0  0  0  0  0
    3.9668    1.2041    2.2647 C   0  0  0  0  0  0  0  0  0  0  0  0
    3.3032    1.7220    2.9615 H   0  0  0  0  0  0  0  0  0  0  0  0
    4.5709    1.9372    1.7234 H   0  0  0  0  0  0  0  0  0  0  0  0
    4.6193    0.5239    2.8197 H   0  0  0  0  0  0  0  0  0  0  0  0
  1  2  1  0  0  0  0
  1  3  1  0  0  0  0
  1  4  1  0  0  0  0
  1  5  1  0  0  0  0
  2 10  1  0  0  0  0
  2 11  1  0  0  0  0
  2 12  1  0  0  0  0
  3  8  1  0  0  0  0
  3  9  1  0  0  0  0
  6  7  3  0  0  0  0
  7  3  1  0  0  0  0
 10 13  1  0  0  0  0
 10 14  1  0  0  0  0
 13 17  2  0  0  0  0
 13 18  1  0  0  0  0
 14 15  2  0  0  0  0
 14 16  1  0  0  0  0
 15 19  1  0  0  0  0
 17 15  1  0  0  0  0
 17 20  1  0  0  0  0
 20 21  1  0  0  0  0
 20 22  1  0  0  0  0
 20 23  1  0  0  0  0
M  END
