
 OpenBabel11112011003D

 31 31  0  0  0  0  0  0  0  0999 V2000
   -2.0456   -0.4095   -0.7240 C   0  0  0  0  0  0  0  0  0  0  0  0
   -0.8639    0.5233   -1.0016 C   0  0  0  0  0  0  0  0  0  0  0  0
    0.0237    0.7972    0.2258 N   0  0  0  0  0  0  0  0  0  0  0  0
   -1.2008    1.5027   -1.3615 H   0  0  0  0  0  0  0  0  0  0  0  0
   -0.2370    0.0810   -1.7813 H   0  0  0  0  0  0  0  0  0  0  0  0
    1.3062    1.5698   -0.2226 C   0  0  0  0  0  0  0  0  0  0  0  0
    2.2986    0.6554   -0.9568 C   0  0  0  0  0  0  0  0  0  0  0  0
    1.7716    1.9479    0.6955 H   0  0  0  0  0  0  0  0  0  0  0  0
    0.9867    2.4110   -0.8458 H   0  0  0  0  0  0  0  0  0  0  0  0
    0.4868   -0.4782    0.9742 C   0  0  0  0  0  0  0  0  0  0  0  0
    1.5010   -1.2779    0.1502 C   0  0  0  0  0  0  0  0  0  0  0  0
   -0.3948   -1.0702    1.2318 H   0  0  0  0  0  0  0  0  0  0  0  0
    0.9630   -0.1284    1.8988 H   0  0  0  0  0  0  0  0  0  0  0  0
   -0.7333    1.6992    1.2070 C   0  0  0  0  0  0  0  0  0  0  0  0
   -1.5832    1.1482    1.6146 H   0  0  0  0  0  0  0  0  0  0  0  0
   -1.0689    2.5900    0.6683 H   0  0  0  0  0  0  0  0  0  0  0  0
   -0.0549    1.9814    2.0179 H   0  0  0  0  0  0  0  0  0  0  0  0
    2.6468   -0.4818   -0.1641 O   0  0  0  0  0  0  0  0  0  0  0  0
    3.2206    1.2115   -1.1541 H   0  0  0  0  0  0  0  0  0  0  0  0
    1.9160    0.3190   -1.9261 H   0  0  0  0  0  0  0  0  0  0  0  0
    1.0617   -1.6726   -0.7724 H   0  0  0  0  0  0  0  0  0  0  0  0
    1.8503   -2.1321    0.7389 H   0  0  0  0  0  0  0  0  0  0  0  0
   -3.1938   -0.1220   -1.6962 C   0  0  0  0  0  0  0  0  0  0  0  0
   -2.4285   -0.3131    0.2960 H   0  0  0  0  0  0  0  0  0  0  0  0
   -1.7117   -1.4480   -0.8410 H   0  0  0  0  0  0  0  0  0  0  0  0
   -4.2285   -1.2348   -1.7032 C   0  0  0  0  0  0  0  0  0  0  0  0
   -2.8114    0.0154   -2.7140 H   0  0  0  0  0  0  0  0  0  0  0  0
   -3.6790    0.8178   -1.4045 H   0  0  0  0  0  0  0  0  0  0  0  0
   -3.8041   -2.1527   -2.1227 H   0  0  0  0  0  0  0  0  0  0  0  0
   -5.0865   -0.9483   -2.3198 H   0  0  0  0  0  0  0  0  0  0  0  0
   -4.5898   -1.4511   -0.6933 H   0  0  0  0  0  0  0  0  0  0  0  0
  1  2  1  0  0  0  0
  1 23  1  0  0  0  0
  1 24  1  0  0  0  0
  1 25  1  0  0  0  0
  2  3  1  0  0  0  0
  2  4  1  0  0  0  0
  2  5  1  0  0  0  0
  3  6  1  0  0  0  0
  3 10  1  0  0  0  0
  3 14  1  0  0  0  0
  6  7  1  0  0  0  0
  6  8  1  0  0  0  0
  6  9  1  0  0  0  0
  7 18  1  0  0  0  0
  7 19  1  0  0  0  0
  7 20  1  0  0  0  0
 10 11  1  0  0  0  0
 10 12  1  0  0  0  0
 10 13  1  0  0  0  0
 11 21  1  0  0  0  0
 11 22  1  0  0  0  0
 14 15  1  0  0  0  0
 14 16  1  0  0  0  0
 14 17  1  0  0  0  0
 18 11  1  0  0  0  0
 23 26  1  0  0  0  0
 23 27  1  0  0  0  0
 23 28  1  0  0  0  0
 26 29  1  0  0  0  0
 26 30  1  0  0  0  0
 26 31  1  0  0  0  0
M  END
