
 OpenBabel11162012303D

 20 20  0  0  0  0  0  0  0  0999 V2000
   -4.0899   -0.6091    0.0682 C   0  0  0  0  0  0  0  0  0  0  0  0
   -2.9553   -1.5137    0.2017 N   0  3  0  0  0  0  0  0  0  0  0  0
   -4.2574   -0.0773    1.0282 H   0  0  0  0  0  0  0  0  0  0  0  0
   -4.9999   -1.1870   -0.1961 H   0  0  0  0  0  0  0  0  0  0  0  0
   -3.8974    0.1419   -0.7279 H   0  0  0  0  0  0  0  0  0  0  0  0
   -2.8446   -2.5412    1.0663 C   0  0  0  0  0  0  0  0  0  0  0  0
   -1.6155   -3.1383    0.8680 C   0  0  0  0  0  0  0  0  0  0  0  0
   -3.5976   -2.8334    1.7867 H   0  0  0  0  0  0  0  0  0  0  0  0
   -0.9771   -2.4703   -0.1143 N   0  0  0  0  0  0  0  0  0  0  0  0
   -1.2170   -3.9902    1.4041 H   0  0  0  0  0  0  0  0  0  0  0  0
   -1.8124   -1.4880   -0.5086 C   0  0  0  0  0  0  0  0  0  0  0  0
   -1.5919   -0.7724   -1.2911 H   0  0  0  0  0  0  0  0  0  0  0  0
    0.3548   -2.7522   -0.6452 C   0  0  0  0  0  0  0  0  0  0  0  0
    1.2874   -1.5667   -0.3921 C   0  0  0  0  0  0  0  0  0  0  0  0
    0.2815   -2.9544   -1.7359 H   0  0  0  0  0  0  0  0  0  0  0  0
    0.7780   -3.6530   -0.1485 H   0  0  0  0  0  0  0  0  0  0  0  0
    2.5605   -1.8265   -0.9165 O   0  0  0  0  0  0  0  0  0  0  0  0
    1.3500   -1.3513    0.6999 H   0  0  0  0  0  0  0  0  0  0  0  0
    0.8874   -0.6542   -0.8820 H   0  0  0  0  0  0  0  0  0  0  0  0
    3.0486   -2.3553   -0.2328 H   0  0  0  0  0  0  0  0  0  0  0  0
  1  2  1  0  0  0  0
  1  3  1  0  0  0  0
  1  4  1  0  0  0  0
  1  5  1  0  0  0  0
  2  6  1  0  0  0  0
  6  7  2  0  0  0  0
  6  8  1  0  0  0  0
  7  9  1  0  0  0  0
  7 10  1  0  0  0  0
  9 11  1  0  0  0  0
  9 13  1  0  0  0  0
 11  2  2  0  0  0  0
 11 12  1  0  0  0  0
 13 14  1  0  0  0  0
 13 15  1  0  0  0  0
 13 16  1  0  0  0  0
 14 17  1  0  0  0  0
 14 18  1  0  0  0  0
 14 19  1  0  0  0  0
 17 20  1  0  0  0  0
M  CHG  1   2   1
M  END
