
 OpenBabel11162011073D

 32 32  0  0  0  0  0  0  0  0999 V2000
   -5.2850   -1.1435   -0.7124 O   0  0  0  0  0  0  0  0  0  0  0  0
   -4.1350   -0.9559    0.0642 C   0  0  0  0  0  0  0  0  0  0  0  0
   -6.0342   -0.7447   -0.1977 H   0  0  0  0  0  0  0  0  0  0  0  0
   -2.9469   -1.6361   -0.6239 C   0  0  0  0  0  0  0  0  0  0  0  0
   -3.9528    0.1326    0.1768 H   0  0  0  0  0  0  0  0  0  0  0  0
   -4.2796   -1.4225    1.0645 H   0  0  0  0  0  0  0  0  0  0  0  0
   -1.7143   -1.5588    0.1912 N   0  0  0  0  0  0  0  0  0  0  0  0
   -2.7838   -1.2009   -1.6359 H   0  0  0  0  0  0  0  0  0  0  0  0
   -3.2360   -2.7036   -0.7551 H   0  0  0  0  0  0  0  0  0  0  0  0
   -1.1344   -0.1988    0.1919 C   0  0  0  0  0  0  0  0  0  0  0  0
    0.1214   -0.1656    1.0686 C   0  0  0  0  0  0  0  0  0  0  0  0
   -1.8475    0.5372    0.6139 H   0  0  0  0  0  0  0  0  0  0  0  0
   -0.8710    0.1164   -0.8438 H   0  0  0  0  0  0  0  0  0  0  0  0
   -0.7127   -2.5149   -0.3206 C   0  0  0  0  0  0  0  0  0  0  0  0
    0.5438   -2.4853    0.5553 C   0  0  0  0  0  0  0  0  0  0  0  0
   -0.4369   -2.2684   -1.3721 H   0  0  0  0  0  0  0  0  0  0  0  0
   -1.1222   -3.5491   -0.2981 H   0  0  0  0  0  0  0  0  0  0  0  0
    1.1243   -1.1256    0.5669 N   0  0  0  0  0  0  0  0  0  0  0  0
   -0.1578   -0.4055    2.1206 H   0  0  0  0  0  0  0  0  0  0  0  0
    0.5334    0.8676    1.0408 H   0  0  0  0  0  0  0  0  0  0  0  0
    1.2590   -3.2167    0.1281 H   0  0  0  0  0  0  0  0  0  0  0  0
    0.2796   -2.8078    1.5885 H   0  0  0  0  0  0  0  0  0  0  0  0
    2.3451   -1.0544    1.4016 C   0  0  0  0  0  0  0  0  0  0  0  0
    3.5435   -1.7625    0.7575 C   0  0  0  0  0  0  0  0  0  0  0  0
    2.1562   -1.4798    2.4130 H   0  0  0  0  0  0  0  0  0  0  0  0
    2.6454    0.0092    1.5365 H   0  0  0  0  0  0  0  0  0  0  0  0
    3.9275   -1.0463   -0.8717 S   0  0  0  0  0  0  0  0  0  0  0  0
    4.4313   -1.6413    1.4134 H   0  0  0  0  0  0  0  0  0  0  0  0
    3.3647   -2.8500    0.6472 H   0  0  0  0  0  0  0  0  0  0  0  0
    5.3027   -1.4997   -1.3834 O   0  0  0  0  0  0  0  0  0  0  0  0
    3.0039   -1.5805   -1.9764 O   0  0  0  0  0  0  0  0  0  0  0  0
    3.9236    0.6592   -1.0654 O   0  5  0  0  0  0  0  0  0  0  0  0
  1  2  1  0  0  0  0
  1  3  1  0  0  0  0
  2  4  1  0  0  0  0
  2  5  1  0  0  0  0
  2  6  1  0  0  0  0
  4  7  1  0  0  0  0
  4  8  1  0  0  0  0
  4  9  1  0  0  0  0
  7 10  1  0  0  0  0
  7 14  1  0  0  0  0
 10 11  1  0  0  0  0
 10 12  1  0  0  0  0
 10 13  1  0  0  0  0
 11 18  1  0  0  0  0
 11 19  1  0  0  0  0
 11 20  1  0  0  0  0
 14 15  1  0  0  0  0
 14 16  1  0  0  0  0
 14 17  1  0  0  0  0
 15 21  1  0  0  0  0
 15 22  1  0  0  0  0
 18 15  1  0  0  0  0
 18 23  1  0  0  0  0
 23 24  1  0  0  0  0
 23 25  1  0  0  0  0
 23 26  1  0  0  0  0
 24 27  1  0  0  0  0
 24 28  1  0  0  0  0
 24 29  1  0  0  0  0
 27 30  2  0  0  0  0
 27 31  2  0  0  0  0
 27 32  1  0  0  0  0
M  CHG  1  32  -1
M  END
