
 OpenBabel11162010213D

 18 18  0  0  0  0  0  0  0  0999 V2000
   -4.5524    1.0437    0.0398 C   0  0  0  0  0  0  0  0  0  0  0  0
   -3.0599    0.9734    0.1717 C   0  0  0  0  0  0  0  0  0  0  0  0
   -4.9710    1.6676    0.8574 H   0  0  0  0  0  0  0  0  0  0  0  0
   -5.0153    0.0354    0.0949 H   0  0  0  0  0  0  0  0  0  0  0  0
   -4.8189    1.4988   -0.9374 H   0  0  0  0  0  0  0  0  0  0  0  0
   -2.3008    2.1525    0.1246 C   0  0  0  0  0  0  0  0  0  0  0  0
   -0.9087    2.1002    0.2435 C   0  0  0  0  0  0  0  0  0  0  0  0
   -2.7878    3.1114   -0.0049 H   0  0  0  0  0  0  0  0  0  0  0  0
   -0.2627    0.8692    0.4097 C   0  0  0  0  0  0  0  0  0  0  0  0
   -0.3353    3.0176    0.2054 H   0  0  0  0  0  0  0  0  0  0  0  0
   -1.0165   -0.3096    0.4602 C   0  0  0  0  0  0  0  0  0  0  0  0
   -2.4089   -0.2593    0.3415 C   0  0  0  0  0  0  0  0  0  0  0  0
   -0.5261   -1.2659    0.5905 H   0  0  0  0  0  0  0  0  0  0  0  0
   -2.9761   -1.1810    0.3815 H   0  0  0  0  0  0  0  0  0  0  0  0
    1.5232    0.8014    0.5596 S   0  0  0  0  0  0  0  0  0  0  0  0
    2.1045   -0.4428   -0.1287 O   0  0  0  0  0  0  0  0  0  0  0  0
    2.2052    1.9247   -0.2360 O   0  0  0  0  0  0  0  0  0  0  0  0
    2.2413    0.8419    2.1178 O   0  5  0  0  0  0  0  0  0  0  0  0
  1  2  1  0  0  0  0
  1  3  1  0  0  0  0
  1  4  1  0  0  0  0
  1  5  1  0  0  0  0
  2  6  1  0  0  0  0
  6  7  2  0  0  0  0
  6  8  1  0  0  0  0
  7  9  1  0  0  0  0
  7 10  1  0  0  0  0
  9 11  2  0  0  0  0
  9 15  1  0  0  0  0
 11 12  1  0  0  0  0
 11 13  1  0  0  0  0
 12  2  2  0  0  0  0
 12 14  1  0  0  0  0
 15 16  2  0  0  0  0
 15 17  2  0  0  0  0
 15 18  1  0  0  0  0
M  CHG  1  18  -1
M  END
