
 OpenBabel11162011213D

 15 14  0  0  0  0  0  0  0  0999 V2000
   -3.5975   -2.0773    0.7675 C   0  0  0  0  0  0  0  0  0  0  0  0
   -4.9730   -2.0384    0.8940 F   0  0  0  0  0  0  0  0  0  0  0  0
   -3.2577   -2.9590   -0.2404 F   0  0  0  0  0  0  0  0  0  0  0  0
   -3.0392   -2.5042    1.9571 F   0  0  0  0  0  0  0  0  0  0  0  0
   -2.9732   -0.4199    0.3556 S   0  0  0  0  0  0  0  0  0  0  0  0
   -2.5039    0.3957    1.5701 O   0  0  0  0  0  0  0  0  0  0  0  0
   -4.0857    0.4819   -0.1997 O   0  0  0  0  0  0  0  0  0  0  0  0
   -1.6841   -0.2863   -0.8542 N   0  5  0  0  0  0  0  0  0  0  0  0
   -0.1185   -0.7130   -0.1370 S   0  0  0  0  0  0  0  0  0  0  0  0
    0.6251   -1.4093   -1.2863 O   0  0  0  0  0  0  0  0  0  0  0  0
   -0.3746   -1.8974    0.8084 O   0  0  0  0  0  0  0  0  0  0  0  0
    0.8940    0.6119    0.5858 C   0  0  0  0  0  0  0  0  0  0  0  0
    0.1165    1.4047    1.4064 F   0  0  0  0  0  0  0  0  0  0  0  0
    1.4313    1.3847   -0.4256 F   0  0  0  0  0  0  0  0  0  0  0  0
    1.9183    0.0548    1.3271 F   0  0  0  0  0  0  0  0  0  0  0  0
  1  2  1  0  0  0  0
  1  3  1  0  0  0  0
  1  4  1  0  0  0  0
  1  5  1  0  0  0  0
  5  6  2  0  0  0  0
  5  7  2  0  0  0  0
  5  8  1  0  0  0  0
  8  9  1  0  0  0  0
  9 10  2  0  0  0  0
  9 11  2  0  0  0  0
  9 12  1  0  0  0  0
 12 13  1  0  0  0  0
 12 14  1  0  0  0  0
 12 15  1  0  0  0  0
M  CHG  1   8  -1
M  END
