
 OpenBabel11162015433D

 21 21  0  0  0  0  0  0  0  0999 V2000
   -3.5046    1.7588    0.0179 C   0  0  0  0  0  0  0  0  0  0  0  0
   -3.2764    0.2454    0.0702 C   0  0  0  0  0  0  0  0  0  0  0  0
   -3.0948    2.1794   -0.9250 H   0  0  0  0  0  0  0  0  0  0  0  0
   -3.0374    2.2566    0.8937 H   0  0  0  0  0  0  0  0  0  0  0  0
   -4.5953    1.9668    0.0439 H   0  0  0  0  0  0  0  0  0  0  0  0
   -1.8615   -0.1852    0.0399 N   0  3  0  0  0  0  0  0  0  0  0  0
   -3.8062   -0.2019   -0.7996 H   0  0  0  0  0  0  0  0  0  0  0  0
   -3.7487   -0.1392    1.0011 H   0  0  0  0  0  0  0  0  0  0  0  0
   -1.6297   -1.5341    0.0591 C   0  0  0  0  0  0  0  0  0  0  0  0
   -0.8002    0.6879   -0.0050 C   0  0  0  0  0  0  0  0  0  0  0  0
   -0.3308   -2.0421    0.0313 C   0  0  0  0  0  0  0  0  0  0  0  0
   -2.4576   -2.2336    0.0945 H   0  0  0  0  0  0  0  0  0  0  0  0
    0.5216    0.2136   -0.0307 C   0  0  0  0  0  0  0  0  0  0  0  0
   -0.9538    1.7572   -0.0194 H   0  0  0  0  0  0  0  0  0  0  0  0
    0.7474   -1.1646   -0.0136 C   0  0  0  0  0  0  0  0  0  0  0  0
   -0.1628   -3.1112    0.0449 H   0  0  0  0  0  0  0  0  0  0  0  0
    1.7566   -1.5574   -0.0342 H   0  0  0  0  0  0  0  0  0  0  0  0
    1.6868    1.1584   -0.0745 C   0  0  0  0  0  0  0  0  0  0  0  0
    1.3555    2.2185   -0.0807 H   0  0  0  0  0  0  0  0  0  0  0  0
    2.2850    0.9719   -0.9910 H   0  0  0  0  0  0  0  0  0  0  0  0
    2.3294    0.9979    0.8169 H   0  0  0  0  0  0  0  0  0  0  0  0
  1  2  1  0  0  0  0
  1  3  1  0  0  0  0
  1  4  1  0  0  0  0
  1  5  1  0  0  0  0
  2  6  1  0  0  0  0
  2  7  1  0  0  0  0
  2  8  1  0  0  0  0
  6  9  2  0  0  0  0
  6 10  1  0  0  0  0
  9 11  1  0  0  0  0
  9 12  1  0  0  0  0
 10 13  2  0  0  0  0
 10 14  1  0  0  0  0
 11 15  2  0  0  0  0
 11 16  1  0  0  0  0
 13 15  1  0  0  0  0
 13 18  1  0  0  0  0
 15 17  1  0  0  0  0
 18 19  1  0  0  0  0
 18 20  1  0  0  0  0
 18 21  1  0  0  0  0
M  CHG  1   6   1
M  END
