
 OpenBabel11112020063D

 32 33  0  0  0  0  0  0  0  0999 V2000
    2.3822   -4.0452   -0.3806 O   0  0  0  0  0  0  0  0  0  0  0  0
    2.6071   -2.3794   -1.5333 O   0  0  0  0  0  0  0  0  0  0  0  0
    0.9664   -0.2396   -0.7622 N   0  0  0  0  0  0  0  0  0  0  0  0
   -1.2330    0.7333   -1.0394 C   0  0  0  0  0  0  0  0  0  0  0  0
    0.1908    0.8097   -1.0213 C   0  0  0  0  0  0  0  0  0  0  0  0
   -1.9760    1.9539   -1.0371 C   0  0  0  0  0  0  0  0  0  0  0  0
    1.1926   -0.7622    0.4585 C   0  0  0  0  0  0  0  0  0  0  0  0
    0.8607    2.0449   -1.1290 C   0  0  0  0  0  0  0  0  0  0  0  0
   -1.2752    3.1860   -1.0679 C   0  0  0  0  0  0  0  0  0  0  0  0
   -1.8394   -0.6317   -1.0331 C   0  0  0  0  0  0  0  0  0  0  0  0
    0.1251    3.2360   -1.1368 C   0  0  0  0  0  0  0  0  0  0  0  0
    1.8443   -2.0246    0.6203 C   0  0  0  0  0  0  0  0  0  0  0  0
   -3.4569    2.0879   -0.9774 C   0  0  0  0  0  0  0  0  0  0  0  0
    0.7622   -0.0683    1.6243 C   0  0  0  0  0  0  0  0  0  0  0  0
    2.0511   -2.5088    1.9408 C   0  0  0  0  0  0  0  0  0  0  0  0
    0.9589   -0.5755    2.9146 C   0  0  0  0  0  0  0  0  0  0  0  0
    1.6152   -1.8002    3.0727 C   0  0  0  0  0  0  0  0  0  0  0  0
    2.2825   -2.8222   -0.4421 C   0  0  0  0  0  0  0  0  0  0  0  0
    1.3864   -0.6282   -1.5004 H   0  0  0  0  0  0  0  0  0  0  0  0
    1.8837    2.0958   -1.1573 H   0  0  0  0  0  0  0  0  0  0  0  0
   -1.7722    4.0815   -1.0386 H   0  0  0  0  0  0  0  0  0  0  0  0
   -1.4684   -1.1994   -1.8893 H   0  0  0  0  0  0  0  0  0  0  0  0
   -1.5688   -1.1668   -0.1216 H   0  0  0  0  0  0  0  0  0  0  0  0
   -2.9209   -0.6835   -1.0955 H   0  0  0  0  0  0  0  0  0  0  0  0
    0.6095    4.1363   -1.1705 H   0  0  0  0  0  0  0  0  0  0  0  0
   -3.7406    2.6248   -0.0694 H   0  0  0  0  0  0  0  0  0  0  0  0
   -3.8142    2.6526   -1.8408 H   0  0  0  0  0  0  0  0  0  0  0  0
   -4.0243    1.1630   -0.9649 H   0  0  0  0  0  0  0  0  0  0  0  0
    0.2846    0.8349    1.5703 H   0  0  0  0  0  0  0  0  0  0  0  0
    2.5327   -3.3938    2.1202 H   0  0  0  0  0  0  0  0  0  0  0  0
    0.6271   -0.0528    3.7286 H   0  0  0  0  0  0  0  0  0  0  0  0
    1.7730   -2.1704    4.0125 H   0  0  0  0  0  0  0  0  0  0  0  0
  1 18  1  0  0  0  0
  2 18  2  0  0  0  0
  3  5  1  0  0  0  0
  3  7  1  0  0  0  0
  3 19  1  0  0  0  0
  4  5  1  0  0  0  0
  4  6  2  0  0  0  0
  4 10  1  0  0  0  0
  5  8  2  0  0  0  0
  6  9  1  0  0  0  0
  6 13  1  0  0  0  0
  7 12  1  0  0  0  0
  7 14  2  0  0  0  0
  8 11  1  0  0  0  0
  8 20  1  0  0  0  0
  9 11  2  0  0  0  0
  9 21  1  0  0  0  0
 10 22  1  0  0  0  0
 10 23  1  0  0  0  0
 10 24  1  0  0  0  0
 11 25  1  0  0  0  0
 12 15  2  0  0  0  0
 12 18  1  0  0  0  0
 13 26  1  0  0  0  0
 13 27  1  0  0  0  0
 13 28  1  0  0  0  0
 14 16  1  0  0  0  0
 14 29  1  0  0  0  0
 15 17  1  0  0  0  0
 15 30  1  0  0  0  0
 16 17  2  0  0  0  0
 16 31  1  0  0  0  0
 17 32  1  0  0  0  0
M  END
