
 OpenBabel10072014213D

 14 13  0  0  0  0  0  0  0  0999 V2000
   -2.8602    0.3795   -0.0495 N   0  3  0  0  0  0  0  0  0  0  0  0
   -1.3597    0.3676   -0.1175 C   0  0  0  0  0  0  0  0  0  0  0  0
   -3.2032    0.2122   -1.0051 H   0  0  0  0  0  0  0  0  0  0  0  0
   -3.3929    1.7179    0.3760 C   0  0  0  0  0  0  0  0  0  0  0  0
   -3.3929   -0.7350    0.8053 C   0  0  0  0  0  0  0  0  0  0  0  0
   -3.0231    2.4690   -0.3269 H   0  0  0  0  0  0  0  0  0  0  0  0
   -3.0450    1.9261    1.3914 H   0  0  0  0  0  0  0  0  0  0  0  0
   -4.4845    1.6765    0.3363 H   0  0  0  0  0  0  0  0  0  0  0  0
   -3.0231   -1.6801    0.3992 H   0  0  0  0  0  0  0  0  0  0  0  0
   -4.4845   -0.7095    0.7539 H   0  0  0  0  0  0  0  0  0  0  0  0
   -3.0450   -0.5860    1.8310 H   0  0  0  0  0  0  0  0  0  0  0  0
   -1.0453    1.1555   -0.8069 H   0  0  0  0  0  0  0  0  0  0  0  0
   -1.0453   -0.6076   -0.4984 H   0  0  0  0  0  0  0  0  0  0  0  0
   -0.9627    0.5432    0.8860 H   0  0  0  0  0  0  0  0  0  0  0  0
  1  2  1  0  0  0  0
  1  3  1  0  0  0  0
  1  4  1  0  0  0  0
  1  5  1  0  0  0  0
  2 12  1  0  0  0  0
  2 13  1  0  0  0  0
  2 14  1  0  0  0  0
  4  6  1  0  0  0  0
  4  7  1  0  0  0  0
  4  8  1  0  0  0  0
  5  9  1  0  0  0  0
  5 10  1  0  0  0  0
  5 11  1  0  0  0  0
M  CHG  1   1   1
M  END
