
 OpenBabel10072014203D

 59 58  0  0  0  0  0  0  0  0999 V2000
   -2.6910    0.2984   -0.2981 N   0  3  0  0  0  0  0  0  0  0  0  0
   -1.3399   -0.3997   -0.2214 C   0  0  0  0  0  0  0  0  0  0  0  0
   -2.9857    0.2767   -1.2837 H   0  0  0  0  0  0  0  0  0  0  0  0
   -2.5945    1.7635    0.1059 C   0  0  0  0  0  0  0  0  0  0  0  0
   -3.7553   -0.4404    0.5018 C   0  0  0  0  0  0  0  0  0  0  0  0
   -1.6037    2.1286   -0.1817 H   0  0  0  0  0  0  0  0  0  0  0  0
   -2.6826    1.8153    1.1969 H   0  0  0  0  0  0  0  0  0  0  0  0
   -3.6709    2.5744   -0.6104 C   0  0  0  0  0  0  0  0  0  0  0  0
   -4.3198   -1.5958   -0.3225 C   0  0  0  0  0  0  0  0  0  0  0  0
   -4.5542    0.2691    0.7383 H   0  0  0  0  0  0  0  0  0  0  0  0
   -3.2957   -0.7743    1.4386 H   0  0  0  0  0  0  0  0  0  0  0  0
   -0.5335   -0.1170   -1.4874 C   0  0  0  0  0  0  0  0  0  0  0  0
   -1.5195   -1.4753   -0.1306 H   0  0  0  0  0  0  0  0  0  0  0  0
   -0.8364   -0.0514    0.6873 H   0  0  0  0  0  0  0  0  0  0  0  0
   -3.5754    4.0398   -0.2087 C   0  0  0  0  0  0  0  0  0  0  0  0
   -4.6649    2.1957   -0.3503 H   0  0  0  0  0  0  0  0  0  0  0  0
   -3.5565    2.4784   -1.6967 H   0  0  0  0  0  0  0  0  0  0  0  0
    0.8243   -0.8205   -1.4367 C   0  0  0  0  0  0  0  0  0  0  0  0
   -3.7334    4.1895    1.0081 H   0  0  0  0  0  0  0  0  0  0  0  0
   -4.6732    4.8887   -0.8340 C   0  0  0  0  0  0  0  0  0  0  0  0
   -2.5854    4.4464   -0.4425 H   0  0  0  0  0  0  0  0  0  0  0  0
   -5.6525    4.4778   -0.5612 H   0  0  0  0  0  0  0  0  0  0  0  0
   -4.5935    4.8596   -1.9269 H   0  0  0  0  0  0  0  0  0  0  0  0
   -4.5832    6.3303   -0.3379 C   0  0  0  0  0  0  0  0  0  0  0  0
   -4.6599    6.3526    0.7555 H   0  0  0  0  0  0  0  0  0  0  0  0
   -5.6826    7.1947   -0.9342 C   0  0  0  0  0  0  0  0  0  0  0  0
   -3.6084    6.7561   -0.6033 H   0  0  0  0  0  0  0  0  0  0  0  0
   -6.6722    6.8157   -0.6597 H   0  0  0  0  0  0  0  0  0  0  0  0
   -5.6142    7.2181   -2.0265 H   0  0  0  0  0  0  0  0  0  0  0  0
   -5.5985    8.2221   -0.5664 H   0  0  0  0  0  0  0  0  0  0  0  0
   -4.7465   -1.2079   -1.2558 H   0  0  0  0  0  0  0  0  0  0  0  0
   -5.4017   -2.3445    0.4585 C   0  0  0  0  0  0  0  0  0  0  0  0
   -3.5260   -2.2972   -0.6016 H   0  0  0  0  0  0  0  0  0  0  0  0
   -6.2056   -1.6498    0.7309 H   0  0  0  0  0  0  0  0  0  0  0  0
   -4.9777   -2.7314    1.3931 H   0  0  0  0  0  0  0  0  0  0  0  0
   -5.9796   -3.5006   -0.3594 C   0  0  0  0  0  0  0  0  0  0  0  0
   -6.4026   -3.1138   -1.2946 H   0  0  0  0  0  0  0  0  0  0  0  0
   -7.0607   -4.2478    0.4210 C   0  0  0  0  0  0  0  0  0  0  0  0
   -5.1762   -4.1959   -0.6316 H   0  0  0  0  0  0  0  0  0  0  0  0
   -7.8684   -3.5580    0.6921 H   0  0  0  0  0  0  0  0  0  0  0  0
   -6.6419   -4.6402    1.3550 H   0  0  0  0  0  0  0  0  0  0  0  0
   -7.6378   -5.3980   -0.3886 C   0  0  0  0  0  0  0  0  0  0  0  0
   -8.0938   -5.0354   -1.3154 H   0  0  0  0  0  0  0  0  0  0  0  0
   -8.4087   -5.9183    0.1883 H   0  0  0  0  0  0  0  0  0  0  0  0
   -6.8605   -6.1235   -0.6487 H   0  0  0  0  0  0  0  0  0  0  0  0
    1.6392   -0.5502   -2.7026 C   0  0  0  0  0  0  0  0  0  0  0  0
    1.0794   -0.8949   -3.5805 H   0  0  0  0  0  0  0  0  0  0  0  0
    2.9953   -1.2535   -2.6514 C   0  0  0  0  0  0  0  0  0  0  0  0
    1.7898    0.5300   -2.8192 H   0  0  0  0  0  0  0  0  0  0  0  0
    2.8504   -2.3343   -2.5391 H   0  0  0  0  0  0  0  0  0  0  0  0
    3.5607   -0.9093   -1.7777 H   0  0  0  0  0  0  0  0  0  0  0  0
    3.8085   -0.9875   -3.9082 C   0  0  0  0  0  0  0  0  0  0  0  0
    3.2846   -1.3496   -4.7985 H   0  0  0  0  0  0  0  0  0  0  0  0
    4.7740   -1.4997   -3.8503 H   0  0  0  0  0  0  0  0  0  0  0  0
    3.9989    0.0833   -4.0329 H   0  0  0  0  0  0  0  0  0  0  0  0
    0.6745   -1.9008   -1.3203 H   0  0  0  0  0  0  0  0  0  0  0  0
    1.3837   -0.4748   -0.5587 H   0  0  0  0  0  0  0  0  0  0  0  0
   -0.3772    0.9597   -1.6154 H   0  0  0  0  0  0  0  0  0  0  0  0
   -1.0920   -0.4657   -2.3649 H   0  0  0  0  0  0  0  0  0  0  0  0
  1  2  1  0  0  0  0
  1  3  1  0  0  0  0
  1  4  1  0  0  0  0
  1  5  1  0  0  0  0
  2 12  1  0  0  0  0
  2 13  1  0  0  0  0
  2 14  1  0  0  0  0
  4  6  1  0  0  0  0
  4  7  1  0  0  0  0
  4  8  1  0  0  0  0
  5  9  1  0  0  0  0
  5 10  1  0  0  0  0
  5 11  1  0  0  0  0
  8 15  1  0  0  0  0
  8 16  1  0  0  0  0
  8 17  1  0  0  0  0
  9 31  1  0  0  0  0
  9 32  1  0  0  0  0
  9 33  1  0  0  0  0
 12 18  1  0  0  0  0
 12 58  1  0  0  0  0
 12 59  1  0  0  0  0
 15 19  1  0  0  0  0
 15 20  1  0  0  0  0
 15 21  1  0  0  0  0
 18 46  1  0  0  0  0
 18 56  1  0  0  0  0
 18 57  1  0  0  0  0
 20 22  1  0  0  0  0
 20 23  1  0  0  0  0
 20 24  1  0  0  0  0
 24 25  1  0  0  0  0
 24 26  1  0  0  0  0
 24 27  1  0  0  0  0
 26 28  1  0  0  0  0
 26 29  1  0  0  0  0
 26 30  1  0  0  0  0
 32 34  1  0  0  0  0
 32 35  1  0  0  0  0
 32 36  1  0  0  0  0
 36 37  1  0  0  0  0
 36 38  1  0  0  0  0
 36 39  1  0  0  0  0
 38 40  1  0  0  0  0
 38 41  1  0  0  0  0
 38 42  1  0  0  0  0
 42 43  1  0  0  0  0
 42 44  1  0  0  0  0
 42 45  1  0  0  0  0
 46 47  1  0  0  0  0
 46 48  1  0  0  0  0
 46 49  1  0  0  0  0
 48 50  1  0  0  0  0
 48 51  1  0  0  0  0
 48 52  1  0  0  0  0
 52 53  1  0  0  0  0
 52 54  1  0  0  0  0
 52 55  1  0  0  0  0
M  CHG  1   1   1
M  END
