
 OpenBabel01072116483D

 11 10  0  0  1  0  0  0  0  0999 V2000
   -1.5336    1.2654    0.0289 C   0  0  0  0  0  0  0  0  0  0  0  0
   -0.1999    2.0198   -0.0261 C   0  0  2  0  0  0  0  0  0  0  0  0
   -1.6415    0.5719    1.2215 F   0  0  0  0  0  0  0  0  0  0  0  0
   -0.1691    2.7416    0.8189 H   0  0  0  0  0  0  0  0  0  0  0  0
    2.1729    1.8313    0.0752 F   0  0  0  0  0  0  0  0  0  0  0  0
   -1.6342    0.3754   -1.0258 F   0  0  0  0  0  0  0  0  0  0  0  0
   -0.1199    2.7288   -1.2130 F   0  0  0  0  0  0  0  0  0  0  0  0
   -2.5758    2.1709   -0.0537 F   0  0  0  0  0  0  0  0  0  0  0  0
    1.0086    1.0850    0.0909 C   0  0  0  0  0  0  0  0  0  0  0  0
    1.0384    0.1892   -0.9633 F   0  0  0  0  0  0  0  0  0  0  0  0
    0.9654    0.5205    1.0464 H   0  0  0  0  0  0  0  0  0  0  0  0
  1  2  1  0  0  0  0
  1  3  1  0  0  0  0
  1  6  1  0  0  0  0
  1  8  1  0  0  0  0
  2  4  1  1  0  0  0
  2  7  1  0  0  0  0
  2  9  1  0  0  0  0
  9  5  1  0  0  0  0
  9 10  1  0  0  0  0
  9 11  1  0  0  0  0
M  END
