
 OpenBabel01062115233D

 11 10  0  0  0  0  0  0  0  0999 V2000
   -2.4420    1.6836   -0.0370 C   0  0  0  0  0  0  0  0  0  0  0  0
   -1.2096    2.5823    0.1057 C   0  0  0  0  0  0  0  0  0  0  0  0
    0.1032    1.8262   -0.1154 C   0  0  0  0  0  0  0  0  0  0  0  0
   -1.2029    3.0362    1.1204 H   0  0  0  0  0  0  0  0  0  0  0  0
   -1.2785    3.4007   -0.6436 H   0  0  0  0  0  0  0  0  0  0  0  0
   -3.5830    2.4410    0.1554 F   0  0  0  0  0  0  0  0  0  0  0  0
   -2.4851    1.1271   -1.3031 F   0  0  0  0  0  0  0  0  0  0  0  0
   -2.4179    0.6715    0.9059 F   0  0  0  0  0  0  0  0  0  0  0  0
    1.1640    2.7063   -0.0042 F   0  0  0  0  0  0  0  0  0  0  0  0
    0.2546    0.8252    0.8275 F   0  0  0  0  0  0  0  0  0  0  0  0
    0.1219    1.3768   -1.1308 H   0  0  0  0  0  0  0  0  0  0  0  0
  1  2  1  0  0  0  0
  1  6  1  0  0  0  0
  1  7  1  0  0  0  0
  1  8  1  0  0  0  0
  2  3  1  0  0  0  0
  2  4  1  0  0  0  0
  2  5  1  0  0  0  0
  3  9  1  0  0  0  0
  3 10  1  0  0  0  0
  3 11  1  0  0  0  0
M  END
