
 OpenBabel01062115283D

  8  7  0  0  0  0  0  0  0  0999 V2000
   -0.3398   -1.7636    0.0049 C   0  0  0  0  0  0  0  0  0  0  0  0
    0.5637   -0.5398   -0.0011 C   0  0  0  0  0  0  0  0  0  0  0  0
    1.7712   -0.8542   -0.5970 F   0  0  0  0  0  0  0  0  0  0  0  0
   -0.0386    0.4859   -0.7067 F   0  0  0  0  0  0  0  0  0  0  0  0
    0.7498   -0.2050    1.0412 H   0  0  0  0  0  0  0  0  0  0  0  0
   -1.5465   -1.4548    0.6060 F   0  0  0  0  0  0  0  0  0  0  0  0
    0.1463   -2.5868    0.5699 H   0  0  0  0  0  0  0  0  0  0  0  0
   -0.5269   -2.1014   -1.0363 H   0  0  0  0  0  0  0  0  0  0  0  0
  1  2  1  0  0  0  0
  1  6  1  0  0  0  0
  1  7  1  0  0  0  0
  1  8  1  0  0  0  0
  2  3  1  0  0  0  0
  2  4  1  0  0  0  0
  2  5  1  0  0  0  0
M  END
