
 OpenBabel01052115583D

 11 10  0  0  0  0  0  0  0  0999 V2000
    1.8822    0.3009   -1.8846 C   0  0  0  0  0  0  0  0  0  0  0  0
    0.5656   -0.4585   -1.7138 C   0  0  0  0  0  0  0  0  0  0  0  0
    0.1511   -1.1524   -3.0138 C   0  0  0  0  0  0  0  0  0  0  0  0
   -0.4269    0.4278   -1.3311 F   0  0  0  0  0  0  0  0  0  0  0  0
    0.7202   -1.4121   -0.7219 F   0  0  0  0  0  0  0  0  0  0  0  0
   -1.0309   -1.8438   -2.8176 F   0  0  0  0  0  0  0  0  0  0  0  0
   -0.0366   -0.2216   -4.0207 F   0  0  0  0  0  0  0  0  0  0  0  0
    0.9357   -1.8732   -3.3288 H   0  0  0  0  0  0  0  0  0  0  0  0
    2.2324    0.9081   -0.6921 F   0  0  0  0  0  0  0  0  0  0  0  0
    1.7801    1.0839   -2.6659 H   0  0  0  0  0  0  0  0  0  0  0  0
    2.6930   -0.3984   -2.1811 H   0  0  0  0  0  0  0  0  0  0  0  0
  1  2  1  0  0  0  0
  1  9  1  0  0  0  0
  1 10  1  0  0  0  0
  1 11  1  0  0  0  0
  2  3  1  0  0  0  0
  2  4  1  0  0  0  0
  2  5  1  0  0  0  0
  3  6  1  0  0  0  0
  3  7  1  0  0  0  0
  3  8  1  0  0  0  0
M  END
