
 OpenBabel01072116273D

 10 10  0  0  1  0  0  0  0  0999 V2000
    0.6933   -1.3190    0.2882 C   0  0  0  0  0  0  0  0  0  0  0  0
   -0.7453   -0.9766    0.2270 C   0  0  2  0  0  0  0  0  0  0  0  0
   -2.5325   -1.6645   -0.7745 H   0  0  0  0  0  0  0  0  0  0  0  0
   -1.2027   -2.8839   -0.7670 H   0  0  0  0  0  0  0  0  0  0  0  0
   -2.1318   -2.5502    0.7463 H   0  0  0  0  0  0  0  0  0  0  0  0
   -1.7058   -2.0924   -0.1703 C   0  0  0  0  0  0  0  0  0  0  0  0
    0.1243   -0.6401   -0.8176 O   0  0  0  0  0  0  0  0  0  0  0  0
   -1.0906   -0.0777    0.7793 H   0  0  0  0  0  0  0  0  0  0  0  0
    1.3732   -0.6116    0.8064 H   0  0  0  0  0  0  0  0  0  0  0  0
    1.0360   -2.3139   -0.0665 H   0  0  0  0  0  0  0  0  0  0  0  0
  1  2  1  0  0  0  0
  1  7  1  0  0  0  0
  1  9  1  0  0  0  0
  1 10  1  0  0  0  0
  2  7  1  0  0  0  0
  2  8  1  1  0  0  0
  2  6  1  0  0  0  0
  6  3  1  0  0  0  0
  6  4  1  0  0  0  0
  6  5  1  0  0  0  0
M  END
