
 OpenBabel01072116213D

 16 15  0  0  1  0  0  0  0  0999 V2000
   -2.3014   -1.2346    0.3297 C   0  0  0  0  0  0  0  0  0  0  0  0
   -2.2053    0.1543   -0.3082 C   0  0  2  0  0  0  0  0  0  0  0  0
   -0.9443    1.0552    1.2325 H   0  0  0  0  0  0  0  0  0  0  0  0
    1.4433    1.0656    0.0739 O   0  0  0  0  0  0  0  0  0  0  0  0
    2.2605    0.6062   -0.2521 H   0  0  0  0  0  0  0  0  0  0  0  0
   -3.2421   -1.7281    0.0051 H   0  0  0  0  0  0  0  0  0  0  0  0
   -1.4592   -1.8832    0.0150 H   0  0  0  0  0  0  0  0  0  0  0  0
   -2.3078   -1.1523    1.4376 H   0  0  0  0  0  0  0  0  0  0  0  0
   -0.9423    0.9262    0.1277 C   0  0  0  0  0  0  0  0  0  0  0  0
   -3.3430    0.8867    0.0664 O   0  0  0  0  0  0  0  0  0  0  0  0
   -3.4696    1.5942   -0.6189 H   0  0  0  0  0  0  0  0  0  0  0  0
    0.3653    0.2573   -0.3074 C   0  0  0  0  0  0  0  0  0  0  0  0
   -0.9783    1.9356   -0.3383 H   0  0  0  0  0  0  0  0  0  0  0  0
    0.3607    0.1408   -1.4145 H   0  0  0  0  0  0  0  0  0  0  0  0
    0.4667   -0.7352    0.1809 H   0  0  0  0  0  0  0  0  0  0  0  0
   -2.1986    0.0160   -1.4154 H   0  0  0  0  0  0  0  0  0  0  0  0
  1  2  1  0  0  0  0
  1  6  1  0  0  0  0
  1  7  1  0  0  0  0
  1  8  1  0  0  0  0
  2  9  1  0  0  0  0
  2 10  1  0  0  0  0
  2 16  1  6  0  0  0
  4  5  1  0  0  0  0
  9  3  1  0  0  0  0
  9 12  1  0  0  0  0
  9 13  1  0  0  0  0
 10 11  1  0  0  0  0
 12  4  1  0  0  0  0
 12 14  1  0  0  0  0
 12 15  1  0  0  0  0
M  END
