
 OpenBabel01052116573D

 19 19  0  0  0  0  0  0  0  0999 V2000
    1.2749    1.6580   -0.5833 C   0  0  0  0  0  0  0  0  0  0  0  0
    1.9462    0.9113    0.4120 C   0  0  0  0  0  0  0  0  0  0  0  0
    1.8925    2.9196   -1.1397 C   0  0  0  0  0  0  0  0  0  0  0  0
    2.8765    3.1527   -0.6838 H   0  0  0  0  0  0  0  0  0  0  0  0
    1.2214    3.7827   -0.9482 H   0  0  0  0  0  0  0  0  0  0  0  0
    2.0469    2.8117   -2.2335 H   0  0  0  0  0  0  0  0  0  0  0  0
    0.0140    1.2102   -1.0548 C   0  0  0  0  0  0  0  0  0  0  0  0
   -0.5458    0.0350   -0.5266 C   0  0  0  0  0  0  0  0  0  0  0  0
    0.1262   -0.6922    0.4544 C   0  0  0  0  0  0  0  0  0  0  0  0
    1.3646   -0.2582    0.9219 C   0  0  0  0  0  0  0  0  0  0  0  0
   -0.7423    1.9696   -2.1143 C   0  0  0  0  0  0  0  0  0  0  0  0
   -0.1377    2.0253   -3.0435 H   0  0  0  0  0  0  0  0  0  0  0  0
   -1.7074    1.4793   -2.3638 H   0  0  0  0  0  0  0  0  0  0  0  0
   -0.9639    2.9969   -1.7572 H   0  0  0  0  0  0  0  0  0  0  0  0
   -1.5073   -0.3227   -0.8739 H   0  0  0  0  0  0  0  0  0  0  0  0
   -0.3151   -1.5963    0.8539 H   0  0  0  0  0  0  0  0  0  0  0  0
    1.8744   -0.8340    1.6843 H   0  0  0  0  0  0  0  0  0  0  0  0
    3.1473    1.3170    0.8770 O   0  0  0  0  0  0  0  0  0  0  0  0
    3.6319    0.8282    1.5575 H   0  0  0  0  0  0  0  0  0  0  0  0
  1  2  1  0  0  0  0
  1  3  1  0  0  0  0
  2 10  2  0  0  0  0
  2 18  1  0  0  0  0
  3  4  1  0  0  0  0
  3  5  1  0  0  0  0
  3  6  1  0  0  0  0
  7  8  1  0  0  0  0
  7 11  1  0  0  0  0
  7  1  2  0  0  0  0
  8  9  2  0  0  0  0
  8 15  1  0  0  0  0
  9 10  1  0  0  0  0
  9 16  1  0  0  0  0
 10 17  1  0  0  0  0
 11 12  1  0  0  0  0
 11 13  1  0  0  0  0
 11 14  1  0  0  0  0
 18 19  1  0  0  0  0
M  END
