
 OpenBabel01062116313D

 12 11  0  0  0  0  0  0  0  0999 V2000
   -1.9816    3.1432    0.2133 C   0  0  0  0  0  0  0  0  0  0  0  0
   -0.4764    2.9185    0.1268 C   0  0  0  0  0  0  0  0  0  0  0  0
    1.1973    1.3245    0.3488 C   0  0  0  0  0  0  0  0  0  0  0  0
   -0.1931    1.5657    0.4214 O   0  0  0  0  0  0  0  0  0  0  0  0
    0.0091    3.5974    0.8637 H   0  0  0  0  0  0  0  0  0  0  0  0
   -0.1556    3.1772   -0.9076 H   0  0  0  0  0  0  0  0  0  0  0  0
   -2.6327    2.3302   -0.6970 F   0  0  0  0  0  0  0  0  0  0  0  0
   -2.2716    4.4648   -0.0733 F   0  0  0  0  0  0  0  0  0  0  0  0
   -2.4296    2.8487    1.4886 F   0  0  0  0  0  0  0  0  0  0  0  0
    1.8920    2.0793    1.2807 F   0  0  0  0  0  0  0  0  0  0  0  0
    1.6856    1.5544   -0.9276 F   0  0  0  0  0  0  0  0  0  0  0  0
    1.3721    0.2552    0.5867 H   0  0  0  0  0  0  0  0  0  0  0  0
  1  2  1  0  0  0  0
  1  7  1  0  0  0  0
  1  8  1  0  0  0  0
  1  9  1  0  0  0  0
  2  4  1  0  0  0  0
  2  5  1  0  0  0  0
  2  6  1  0  0  0  0
  3  4  1  0  0  0  0
  3 10  1  0  0  0  0
  3 11  1  0  0  0  0
  3 12  1  0  0  0  0
M  END
