
 OpenBabel01072115563D

  8  7  0  0  1  0  0  0  0  0999 V2000
    0.1569    0.8656   -0.1112 C   0  0  0  0  0  0  0  0  0  0  0  0
    0.6722   -0.5285    0.2339 C   0  0  2  0  0  0  0  0  0  0  0  0
   -1.2168    0.8350   -0.2725 F   0  0  0  0  0  0  0  0  0  0  0  0
    2.0441   -0.4925    0.4064 F   0  0  0  0  0  0  0  0  0  0  0  0
    0.2794   -1.6868   -1.0642 Cl  0  0  0  0  0  0  0  0  0  0  0  0
    0.4689    1.7415    0.9126 F   0  0  0  0  0  0  0  0  0  0  0  0
    0.7432    1.3132   -1.2818 F   0  0  0  0  0  0  0  0  0  0  0  0
    0.2002   -0.8770    1.1769 H   0  0  0  0  0  0  0  0  0  0  0  0
  1  2  1  0  0  0  0
  1  3  1  0  0  0  0
  1  6  1  0  0  0  0
  1  7  1  0  0  0  0
  2  4  1  0  0  0  0
  2  5  1  0  0  0  0
  2  8  1  1  0  0  0
M  END
$$$$
