
 OpenBabel01062115083D

 15 15  0  0  0  0  0  0  0  0999 V2000
   -2.7843    4.1083   -0.3281 C   0  0  0  0  0  0  0  0  0  0  0  0
   -3.4139    2.9475    0.4382 C   0  0  0  0  0  0  0  0  0  0  0  0
   -1.2697    4.1656   -0.0388 C   0  0  0  0  0  0  0  0  0  0  0  0
   -3.2525    5.0774   -0.0523 H   0  0  0  0  0  0  0  0  0  0  0  0
   -2.9536    3.9371   -1.4149 H   0  0  0  0  0  0  0  0  0  0  0  0
   -0.6272    2.8017   -0.1699 C   0  0  0  0  0  0  0  0  0  0  0  0
   -1.0733    4.5349    0.9908 H   0  0  0  0  0  0  0  0  0  0  0  0
   -0.8194    4.8789   -0.7622 H   0  0  0  0  0  0  0  0  0  0  0  0
   -1.4661    1.5832   -0.2635 C   0  0  0  0  0  0  0  0  0  0  0  0
   -2.7853    1.6532   -0.0209 C   0  0  0  0  0  0  0  0  0  0  0  0
   -4.5152    2.9025    0.3022 H   0  0  0  0  0  0  0  0  0  0  0  0
   -3.2009    3.0952    1.5196 H   0  0  0  0  0  0  0  0  0  0  0  0
   -3.4047    0.7702   -0.1454 H   0  0  0  0  0  0  0  0  0  0  0  0
   -1.0164    0.6349   -0.5420 H   0  0  0  0  0  0  0  0  0  0  0  0
    0.5894    2.7024   -0.1862 O   0  0  0  0  0  0  0  0  0  0  0  0
  1  2  1  0  0  0  0
  1  3  1  0  0  0  0
  1  4  1  0  0  0  0
  1  5  1  0  0  0  0
  2 10  1  0  0  0  0
  2 11  1  0  0  0  0
  2 12  1  0  0  0  0
  3  6  1  0  0  0  0
  3  7  1  0  0  0  0
  3  8  1  0  0  0  0
  6  9  1  0  0  0  0
  6 15  2  0  0  0  0
  9 14  1  0  0  0  0
 10  9  2  0  0  0  0
 10 13  1  0  0  0  0
M  END
