
 OpenBabel07272114283D

 12 12  0  0  0  0  0  0  0  0999 V2000
   -5.6895   -0.4013   -0.1526 C   0  0  0  0  0  0  0  0  0  0  0  0
   -4.9804   -1.3219   -0.7663 O   0  0  0  0  0  0  0  0  0  0  0  0
   -7.0360   -0.6356   -0.3504 C   0  0  0  0  0  0  0  0  0  0  0  0
   -5.1041    0.7025    0.6223 C   0  0  0  0  0  0  0  0  0  0  0  0
   -5.8033   -2.1561   -1.3624 C   0  0  0  0  0  0  0  0  0  0  0  0
   -7.1069   -1.7674   -1.1305 C   0  0  0  0  0  0  0  0  0  0  0  0
   -3.7629    0.8053    0.7295 O   0  0  0  0  0  0  0  0  0  0  0  0
   -5.8264    1.5238    1.1674 O   0  0  0  0  0  0  0  0  0  0  0  0
   -7.8669   -0.0541    0.0269 H   0  0  0  0  0  0  0  0  0  0  0  0
   -5.4902   -3.0133   -1.9432 H   0  0  0  0  0  0  0  0  0  0  0  0
   -8.0038   -2.2540   -1.4896 H   0  0  0  0  0  0  0  0  0  0  0  0
   -3.3499    1.5212    1.2330 H   0  0  0  0  0  0  0  0  0  0  0  0
  1  4  1  0  0  0  0
  1  3  2  0  0  0  0
  1  2  1  0  0  0  0
  3  6  1  0  0  0  0
  3  9  1  0  0  0  0
  4  7  1  0  0  0  0
  4  8  2  0  0  0  0
  5  2  1  0  0  0  0
  5 10  1  0  0  0  0
  6  5  2  0  0  0  0
  6 11  1  0  0  0  0
  7 12  1  0  0  0  0
M  END
