
 OpenBabel08032111333D

 20 19  0  0  0  0  0  0  0  0999 V2000
    1.2853    1.6102    2.1650 C   0  0  0  0  0  0  0  0  0  0  0  0
    0.4522    2.8717    1.8870 C   0  0  0  0  0  0  0  0  0  0  0  0
   -1.0412    2.5791    2.0060 C   0  0  0  0  0  0  0  0  0  0  0  0
    2.8068    1.8259    1.9908 C   0  0  0  0  0  0  0  0  0  0  0  0
    3.3725    2.8535    2.9839 C   0  0  0  0  0  0  0  0  0  0  0  0
    3.5394    0.4891    2.1681 C   0  0  0  0  0  0  0  0  0  0  0  0
    0.9627    0.8263    1.4439 H   0  0  0  0  0  0  0  0  0  0  0  0
    1.0735    1.2438    3.1941 H   0  0  0  0  0  0  0  0  0  0  0  0
    0.6637    3.2376    0.8588 H   0  0  0  0  0  0  0  0  0  0  0  0
    0.7023    3.6721    2.6131 H   0  0  0  0  0  0  0  0  0  0  0  0
   -1.6198    3.5036    1.7974 H   0  0  0  0  0  0  0  0  0  0  0  0
   -1.2855    2.2304    3.0321 H   0  0  0  0  0  0  0  0  0  0  0  0
   -1.3425    1.7995    1.2742 H   0  0  0  0  0  0  0  0  0  0  0  0
    3.0029    2.1869    0.9567 H   0  0  0  0  0  0  0  0  0  0  0  0
    4.4674    2.9657    2.8326 H   0  0  0  0  0  0  0  0  0  0  0  0
    3.1890    2.5293    4.0308 H   0  0  0  0  0  0  0  0  0  0  0  0
    2.9206    3.8537    2.8301 H   0  0  0  0  0  0  0  0  0  0  0  0
    3.3772    0.0835    3.1902 H   0  0  0  0  0  0  0  0  0  0  0  0
    4.6304    0.6228    2.0060 H   0  0  0  0  0  0  0  0  0  0  0  0
    3.1721   -0.2530    1.4274 H   0  0  0  0  0  0  0  0  0  0  0  0
  1  2  1  0  0  0  0
  1  4  1  0  0  0  0
  1  7  1  0  0  0  0
  1  8  1  0  0  0  0
  2  3  1  0  0  0  0
  2  9  1  0  0  0  0
  2 10  1  0  0  0  0
  3 11  1  0  0  0  0
  3 12  1  0  0  0  0
  3 13  1  0  0  0  0
  4  5  1  0  0  0  0
  4  6  1  0  0  0  0
  4 14  1  0  0  0  0
  5 15  1  0  0  0  0
  5 16  1  0  0  0  0
  5 17  1  0  0  0  0
  6 18  1  0  0  0  0
  6 19  1  0  0  0  0
  6 20  1  0  0  0  0
M  END
