
 OpenBabel01062116333D

 18 17  0  0  0  0  0  0  0  0999 V2000
   -2.3223    0.8104   -0.0185 C   0  0  0  0  0  0  0  0  0  0  0  0
   -0.9028    1.0992   -0.5102 C   0  0  0  0  0  0  0  0  0  0  0  0
   -2.6531   -0.2072   -0.3075 H   0  0  0  0  0  0  0  0  0  0  0  0
   -3.0251    1.5357   -0.4802 H   0  0  0  0  0  0  0  0  0  0  0  0
   -2.3765    0.9186    1.0856 H   0  0  0  0  0  0  0  0  0  0  0  0
    0.1737    0.1899    0.1290 C   0  0  0  0  0  0  0  0  0  0  0  0
   -0.6752    2.1559   -0.2477 H   0  0  0  0  0  0  0  0  0  0  0  0
   -0.8744    1.0044   -1.6180 H   0  0  0  0  0  0  0  0  0  0  0  0
   -0.0406   -1.2935   -0.2232 C   0  0  0  0  0  0  0  0  0  0  0  0
   -1.0129   -1.6612    0.1611 H   0  0  0  0  0  0  0  0  0  0  0  0
    0.7459   -1.9213    0.2462 H   0  0  0  0  0  0  0  0  0  0  0  0
   -0.0059   -1.4433   -1.3236 H   0  0  0  0  0  0  0  0  0  0  0  0
    1.5690    0.6490   -0.3339 C   0  0  0  0  0  0  0  0  0  0  0  0
    0.1237    0.3047    1.2349 H   0  0  0  0  0  0  0  0  0  0  0  0
    2.5629   -0.1112    0.2973 O   0  0  0  0  0  0  0  0  0  0  0  0
    1.7068    1.7197   -0.0606 H   0  0  0  0  0  0  0  0  0  0  0  0
    1.6514    0.5357   -1.4390 H   0  0  0  0  0  0  0  0  0  0  0  0
    3.4297    0.2256   -0.0492 H   0  0  0  0  0  0  0  0  0  0  0  0
  1  2  1  0  0  0  0
  1  3  1  0  0  0  0
  1  4  1  0  0  0  0
  1  5  1  0  0  0  0
  2  6  1  0  0  0  0
  2  7  1  0  0  0  0
  2  8  1  0  0  0  0
  6  9  1  0  0  0  0
  6 13  1  0  0  0  0
  6 14  1  0  0  0  0
  9 10  1  0  0  0  0
  9 11  1  0  0  0  0
  9 12  1  0  0  0  0
 13 15  1  0  0  0  0
 13 16  1  0  0  0  0
 13 17  1  0  0  0  0
 15 18  1  0  0  0  0
M  END
