
 OpenBabel01072116003D

 27 26  0  0  1  0  0  0  0  0999 V2000
    0.3314   -4.6533    1.3997 H   0  0  0  0  0  0  0  0  0  0  0  0
   -0.8903   -3.8470   -1.3186 H   0  0  0  0  0  0  0  0  0  0  0  0
    0.1771   -6.9866    0.5042 H   0  0  0  0  0  0  0  0  0  0  0  0
   -1.4525   -6.2278    0.6289 H   0  0  0  0  0  0  0  0  0  0  0  0
   -0.6444   -6.3758   -0.9834 H   0  0  0  0  0  0  0  0  0  0  0  0
    1.4170   -4.7899   -0.3614 O   0  0  0  0  0  0  0  0  0  0  0  0
    2.0709   -5.2560    0.2225 H   0  0  0  0  0  0  0  0  0  0  0  0
   -0.4773   -6.1861    0.0986 C   0  0  0  0  0  0  0  0  0  0  0  0
   -1.3415    1.2859   -0.8046 C   0  0  0  0  0  0  0  0  0  0  0  0
   -1.7051   -3.7471    0.2908 H   0  0  0  0  0  0  0  0  0  0  0  0
    0.1820   -4.8208    0.3067 C   0  0  2  0  0  0  0  0  0  0  0  0
   -0.4183    0.1805   -0.2789 C   0  0  0  0  0  0  0  0  0  0  0  0
    0.0559   -2.1648    1.0988 H   0  0  0  0  0  0  0  0  0  0  0  0
   -0.5816    2.8390    0.5184 H   0  0  0  0  0  0  0  0  0  0  0  0
   -1.0301   -1.2051   -0.5178 C   0  0  0  0  0  0  0  0  0  0  0  0
    0.5629    0.2435   -0.7993 H   0  0  0  0  0  0  0  0  0  0  0  0
   -0.2552    0.3267    0.8119 H   0  0  0  0  0  0  0  0  0  0  0  0
   -0.1074   -2.3113    0.0082 C   0  0  0  0  0  0  0  0  0  0  0  0
   -2.0114   -1.2672    0.0026 H   0  0  0  0  0  0  0  0  0  0  0  0
   -1.1933   -1.3512   -1.6085 H   0  0  0  0  0  0  0  0  0  0  0  0
   -0.7223   -3.6983   -0.2287 C   0  0  0  0  0  0  0  0  0  0  0  0
    0.8730   -2.2452   -0.5125 H   0  0  0  0  0  0  0  0  0  0  0  0
   -0.7363    2.6666   -0.5681 C   0  0  0  0  0  0  0  0  0  0  0  0
    0.2378    2.7562   -1.0946 H   0  0  0  0  0  0  0  0  0  0  0  0
   -1.4244    3.4462   -0.9576 H   0  0  0  0  0  0  0  0  0  0  0  0
   -1.5058    1.1481   -1.8957 H   0  0  0  0  0  0  0  0  0  0  0  0
   -2.3235    1.2309   -0.2859 H   0  0  0  0  0  0  0  0  0  0  0  0
  6  7  1  0  0  0  0
  8  3  1  0  0  0  0
  8  4  1  0  0  0  0
  8  5  1  0  0  0  0
  9 12  1  0  0  0  0
  9 23  1  0  0  0  0
  9 26  1  0  0  0  0
  9 27  1  0  0  0  0
 11  8  1  0  0  0  0
 11  1  1  1  0  0  0
 11  6  1  0  0  0  0
 12 15  1  0  0  0  0
 12 16  1  0  0  0  0
 12 17  1  0  0  0  0
 15 18  1  0  0  0  0
 15 19  1  0  0  0  0
 15 20  1  0  0  0  0
 18 13  1  0  0  0  0
 18 21  1  0  0  0  0
 18 22  1  0  0  0  0
 21 11  1  0  0  0  0
 21 10  1  0  0  0  0
 21  2  1  0  0  0  0
 23 14  1  0  0  0  0
 23 24  1  0  0  0  0
 23 25  1  0  0  0  0
M  END
