
 OpenBabel01062116513D

  5  4  0  0  0  0  0  0  0  0999 V2000
    1.1399    2.1596    0.4774 C   0  0  0  0  0  0  0  0  0  0  0  0
    2.6777    2.8686    1.4105 Br  0  0  0  0  0  0  0  0  0  0  0  0
    0.6057    3.1373   -0.3395 F   0  0  0  0  0  0  0  0  0  0  0  0
    1.5256    1.0779   -0.2906 F   0  0  0  0  0  0  0  0  0  0  0  0
    0.3766    1.8362    1.2148 H   0  0  0  0  0  0  0  0  0  0  0  0
  1  2  1  0  0  0  0
  1  3  1  0  0  0  0
  1  4  1  0  0  0  0
  1  5  1  0  0  0  0
M  END
