
 OpenBabel07272114543D

 21 20  0  0  0  0  0  0  0  0999 V2000
    0.8839   -0.3292    0.0825 C   0  0  0  0  0  0  0  0  0  0  0  0
    0.4616   -0.2313    1.5826 C   0  0  0  0  0  0  0  0  0  0  0  0
    2.3504   -0.0700   -0.1955 C   0  0  0  0  0  0  0  0  0  0  0  0
    1.2506   -1.1115    2.3497 O   0  0  0  0  0  0  0  0  0  0  0  0
    0.6586    1.1804    2.1277 C   0  0  0  0  0  0  0  0  0  0  0  0
   -1.0407   -0.6227    1.6962 C   0  0  0  0  0  0  0  0  0  0  0  0
   -1.5591   -0.6473    3.1105 C   0  0  0  0  0  0  0  0  0  0  0  0
    0.4030    1.4375    3.4289 O   0  0  0  0  0  0  0  0  0  0  0  0
    1.0509    2.0877    1.4068 O   0  0  0  0  0  0  0  0  0  0  0  0
    2.8132   -0.1329   -1.4614 O   0  0  0  0  0  0  0  0  0  0  0  0
    3.1307    0.1885    0.7078 O   0  0  0  0  0  0  0  0  0  0  0  0
   -1.0161   -1.4888    4.0159 O   0  0  0  0  0  0  0  0  0  0  0  0
   -2.4809    0.0863    3.4354 O   0  0  0  0  0  0  0  0  0  0  0  0
    0.2788    0.3861   -0.5168 H   0  0  0  0  0  0  0  0  0  0  0  0
    0.6631   -1.3535   -0.2895 H   0  0  0  0  0  0  0  0  0  0  0  0
    1.1007   -2.0334    2.0115 H   0  0  0  0  0  0  0  0  0  0  0  0
   -1.1943   -1.6386    1.2714 H   0  0  0  0  0  0  0  0  0  0  0  0
   -1.6472    0.0899    1.0929 H   0  0  0  0  0  0  0  0  0  0  0  0
    0.5198    2.3223    3.8029 H   0  0  0  0  0  0  0  0  0  0  0  0
    2.2281   -0.3376   -2.2042 H   0  0  0  0  0  0  0  0  0  0  0  0
   -1.3359   -1.5234    4.9285 H   0  0  0  0  0  0  0  0  0  0  0  0
  1  2  1  0  0  0  0
  1  3  1  0  0  0  0
  1 14  1  0  0  0  0
  1 15  1  0  0  0  0
  2  4  1  0  0  0  0
  2  5  1  0  0  0  0
  2  6  1  0  0  0  0
  3 10  1  0  0  0  0
  3 11  2  0  0  0  0
  4 16  1  0  0  0  0
  5  8  1  0  0  0  0
  5  9  2  0  0  0  0
  6  7  1  0  0  0  0
  6 17  1  0  0  0  0
  6 18  1  0  0  0  0
  7 12  1  0  0  0  0
  7 13  2  0  0  0  0
  8 19  1  0  0  0  0
 10 20  1  0  0  0  0
 12 21  1  0  0  0  0
M  END
