
 OpenBabel01062117003D

  3  2  0  0  0  0  0  0  0  0999 V2000
    0.8554    0.0042    0.0000 O   0  0  0  0  0  0  0  0  0  0  0  0
    1.6947    0.4878    0.0000 H   0  0  0  0  0  0  0  0  0  0  0  0
    1.1281   -0.9252    0.0000 H   0  0  0  0  0  0  0  0  0  0  0  0
  1  2  1  0  0  0  0
  1  3  1  0  0  0  0
M  END
