
 OpenBabel01072110103D

 18 17  0  0  0  0  0  0  0  0999 V2000
   -2.2274   -0.2042    0.0284 C   0  0  0  0  0  0  0  0  0  0  0  0
   -1.0575    0.7770   -0.0482 C   0  0  0  0  0  0  0  0  0  0  0  0
    1.3446    0.9896    0.0397 C   0  0  0  0  0  0  0  0  0  0  0  0
    2.6644    0.2253    0.1495 C   0  0  0  0  0  0  0  0  0  0  0  0
   -3.4458    0.4806   -0.0758 O   0  0  0  0  0  0  0  0  0  0  0  0
   -2.1907   -0.7869    0.9772 H   0  0  0  0  0  0  0  0  0  0  0  0
   -2.1625   -0.9316   -0.8086 H   0  0  0  0  0  0  0  0  0  0  0  0
   -3.6163    0.8955    0.8099 H   0  0  0  0  0  0  0  0  0  0  0  0
    3.7432    1.1187    0.1942 O   0  0  0  0  0  0  0  0  0  0  0  0
    2.7858   -0.4830   -0.7019 H   0  0  0  0  0  0  0  0  0  0  0  0
    2.6678   -0.3767    1.0831 H   0  0  0  0  0  0  0  0  0  0  0  0
    3.8896    1.4350   -0.7355 H   0  0  0  0  0  0  0  0  0  0  0  0
    0.2155    0.0533    0.0393 N   0  0  0  0  0  0  0  0  0  0  0  0
   -1.1441    1.4942    0.7981 H   0  0  0  0  0  0  0  0  0  0  0  0
   -1.1140    1.3403   -1.0072 H   0  0  0  0  0  0  0  0  0  0  0  0
    1.3471    1.5911   -0.8974 H   0  0  0  0  0  0  0  0  0  0  0  0
    1.2627    1.6771    0.9109 H   0  0  0  0  0  0  0  0  0  0  0  0
    0.2997   -0.5779   -0.7929 H   0  0  0  0  0  0  0  0  0  0  0  0
  1  2  1  0  0  0  0
  1  5  1  0  0  0  0
  1  6  1  0  0  0  0
  1  7  1  0  0  0  0
  2 13  1  0  0  0  0
  2 14  1  0  0  0  0
  2 15  1  0  0  0  0
  3  4  1  0  0  0  0
  3 13  1  0  0  0  0
  3 16  1  0  0  0  0
  3 17  1  0  0  0  0
  4  9  1  0  0  0  0
  4 10  1  0  0  0  0
  4 11  1  0  0  0  0
  5  8  1  0  0  0  0
  9 12  1  0  0  0  0
 13 18  1  0  0  0  0
M  END
