
 OpenBabel01072110133D

  9  8  0  0  0  0  0  0  0  0999 V2000
   -0.8384    1.9272   -0.8754 C   0  0  0  0  0  0  0  0  0  0  0  0
   -1.5894    4.0792   -1.3613 C   0  0  0  0  0  0  0  0  0  0  0  0
   -1.7941    2.9243   -0.5733 O   0  0  0  0  0  0  0  0  0  0  0  0
   -2.7623    4.8088   -1.3820 F   0  0  0  0  0  0  0  0  0  0  0  0
   -0.5951    4.8643   -0.8043 F   0  0  0  0  0  0  0  0  0  0  0  0
   -1.3392    3.8414   -2.4198 H   0  0  0  0  0  0  0  0  0  0  0  0
    0.4559    2.4064   -0.7425 F   0  0  0  0  0  0  0  0  0  0  0  0
   -1.0349    1.4312   -2.1539 F   0  0  0  0  0  0  0  0  0  0  0  0
   -1.0000    0.8858    0.0179 F   0  0  0  0  0  0  0  0  0  0  0  0
  1  3  1  0  0  0  0
  1  7  1  0  0  0  0
  1  8  1  0  0  0  0
  1  9  1  0  0  0  0
  2  3  1  0  0  0  0
  2  4  1  0  0  0  0
  2  5  1  0  0  0  0
  2  6  1  0  0  0  0
M  END
