
 OpenBabel10292009323D

 11 10  0  0  0  0  0  0  0  0999 V2000
   -1.9289    0.1798   -5.9021 C   0  0  0  0  0  0  0  0  0  0  0  0
   -2.7023    0.5518   -5.0357 O   0  0  0  0  0  0  0  0  0  0  0  0
   -1.0201   -0.7809   -5.6224 O   0  0  0  0  0  0  0  0  0  0  0  0
   -1.9802    0.6268   -6.8912 H   0  0  0  0  0  0  0  0  0  0  0  0
   -0.1224   -1.2394   -6.5617 C   0  0  0  0  0  0  0  0  0  0  0  0
    0.7604   -2.3125   -5.9433 C   0  0  0  0  0  0  0  0  0  0  0  0
    0.5162   -0.3999   -6.9151 H   0  0  0  0  0  0  0  0  0  0  0  0
   -0.6700   -1.6714   -7.4281 H   0  0  0  0  0  0  0  0  0  0  0  0
    1.3220   -1.8936   -5.0813 H   0  0  0  0  0  0  0  0  0  0  0  0
    1.4847   -2.6834   -6.6988 H   0  0  0  0  0  0  0  0  0  0  0  0
    0.1376   -3.1631   -5.5936 H   0  0  0  0  0  0  0  0  0  0  0  0
  1  2  2  0  0  0  0
  1  3  1  0  0  0  0
  1  4  1  0  0  0  0
  3  5  1  0  0  0  0
  5  6  1  0  0  0  0
  5  7  1  0  0  0  0
  5  8  1  0  0  0  0
  6  9  1  0  0  0  0
  6 10  1  0  0  0  0
  6 11  1  0  0  0  0
M  END
