
 OpenBabel07282115503D

 17 16  0  0  0  0  0  0  0  0999 V2000
    2.5668    4.1867    0.0796 C   0  0  0  0  0  0  0  0  0  0  0  0
    3.3589    3.2560    1.0043 C   0  0  0  0  0  0  0  0  0  0  0  0
    4.8449    3.6307    1.0183 C   0  0  0  0  0  0  0  0  0  0  0  0
    1.1112    3.8185    0.0712 C   0  0  0  0  0  0  0  0  0  0  0  0
    5.6178    2.7147    1.9228 C   0  0  0  0  0  0  0  0  0  0  0  0
    0.3978    3.8668    1.2165 O   0  0  0  0  0  0  0  0  0  0  0  0
    0.5707    3.4831   -0.9723 O   0  0  0  0  0  0  0  0  0  0  0  0
    5.6523    1.3891    1.6687 O   0  0  0  0  0  0  0  0  0  0  0  0
    6.2215    3.1692    2.8832 O   0  0  0  0  0  0  0  0  0  0  0  0
    2.6656    5.2380    0.4262 H   0  0  0  0  0  0  0  0  0  0  0  0
    2.9767    4.1147   -0.9524 H   0  0  0  0  0  0  0  0  0  0  0  0
    2.9555    3.3302    2.0388 H   0  0  0  0  0  0  0  0  0  0  0  0
    3.2444    2.2074    0.6495 H   0  0  0  0  0  0  0  0  0  0  0  0
    5.2641    3.5537   -0.0081 H   0  0  0  0  0  0  0  0  0  0  0  0
    4.9552    4.6815    1.3673 H   0  0  0  0  0  0  0  0  0  0  0  0
   -0.5420    3.6367    1.2361 H   0  0  0  0  0  0  0  0  0  0  0  0
    6.1454    0.7790    2.2354 H   0  0  0  0  0  0  0  0  0  0  0  0
  1  2  1  0  0  0  0
  1  4  1  0  0  0  0
  1 10  1  0  0  0  0
  1 11  1  0  0  0  0
  2  3  1  0  0  0  0
  2 12  1  0  0  0  0
  2 13  1  0  0  0  0
  3  5  1  0  0  0  0
  3 14  1  0  0  0  0
  3 15  1  0  0  0  0
  4  6  1  0  0  0  0
  4  7  2  0  0  0  0
  5  8  1  0  0  0  0
  5  9  2  0  0  0  0
  6 16  1  0  0  0  0
  8 17  1  0  0  0  0
M  END
