
 OpenBabel11042022283D

 22 21  0  0  0  0  0  0  0  0999 V2000
    5.6701   -1.4603   -0.1165 C   0  0  0  0  0  0  0  0  0  0  0  0
    5.2658   -0.0364   -0.5230 C   0  0  0  0  0  0  0  0  0  0  0  0
   -0.5002    1.1147    1.3459 H   0  0  0  0  0  0  0  0  0  0  0  0
    1.5968    0.1211    0.2759 O   0  0  0  0  0  0  0  0  0  0  0  0
    6.1295    1.9644   -0.5360 H   0  0  0  0  0  0  0  0  0  0  0  0
    4.9102   -2.1989   -0.4393 H   0  0  0  0  0  0  0  0  0  0  0  0
    6.6227   -1.7380   -0.6151 H   0  0  0  0  0  0  0  0  0  0  0  0
    5.8067   -1.5303    0.9840 H   0  0  0  0  0  0  0  0  0  0  0  0
    3.9483    0.4254    0.1342 C   0  0  0  0  0  0  0  0  0  0  0  0
    6.5830    0.9707    0.9055 H   0  0  0  0  0  0  0  0  0  0  0  0
    7.3292    0.6399   -0.7089 H   0  0  0  0  0  0  0  0  0  0  0  0
    0.1915   -1.3720   -0.6388 O   0  0  0  0  0  0  0  0  0  0  0  0
   -0.8234    0.2441    0.7371 C   0  0  0  0  0  0  0  0  0  0  0  0
   -1.5421    0.5914   -0.0344 H   0  0  0  0  0  0  0  0  0  0  0  0
   -1.3240   -0.4925    1.3997 H   0  0  0  0  0  0  0  0  0  0  0  0
    0.3559   -0.3931    0.0761 C   0  0  0  0  0  0  0  0  0  0  0  0
    2.8537   -1.4594    0.0363 H   0  0  0  0  0  0  0  0  0  0  0  0
    2.6468   -0.3754   -1.4040 H   0  0  0  0  0  0  0  0  0  0  0  0
    2.7379   -0.4063   -0.2955 C   0  0  0  0  0  0  0  0  0  0  0  0
    4.0454    0.4023    1.2422 H   0  0  0  0  0  0  0  0  0  0  0  0
    3.7551    1.4759   -0.1764 H   0  0  0  0  0  0  0  0  0  0  0  0
    6.3956    0.9435   -0.1897 C   0  0  0  0  0  0  0  0  0  0  0  0
  1  2  1  0  0  0  0
  1  6  1  0  0  0  0
  1  7  1  0  0  0  0
  1  8  1  0  0  0  0
  2  9  1  0  0  0  0
  2 22  1  0  0  0  0
  4 19  1  0  0  0  0
  9 19  1  0  0  0  0
  9 20  1  0  0  0  0
  9 21  1  0  0  0  0
 13  3  1  0  0  0  0
 13 14  1  0  0  0  0
 13 15  1  0  0  0  0
 16  4  1  0  0  0  0
 16 13  1  0  0  0  0
 16 12  2  0  0  0  0
 19 18  1  0  0  0  0
 19 17  1  0  0  0  0
 22 10  1  0  0  0  0
 22 11  1  0  0  0  0
 22  5  1  0  0  0  0
M  END
