
 OpenBabel10292021353D

  8  7  0  0  0  0  0  0  0  0999 V2000
   -1.2229   -0.2932   -5.9193 C   0  0  0  0  0  0  0  0  0  0  0  0
   -2.2202    0.2024   -5.4224 O   0  0  0  0  0  0  0  0  0  0  0  0
   -0.8159   -1.5202   -5.5247 O   0  0  0  0  0  0  0  0  0  0  0  0
   -0.6723    0.2598   -6.6756 H   0  0  0  0  0  0  0  0  0  0  0  0
    0.3015   -2.1269   -6.0515 C   0  0  0  0  0  0  0  0  0  0  0  0
    0.4345   -3.1208   -5.5769 H   0  0  0  0  0  0  0  0  0  0  0  0
    0.1810   -2.2662   -7.1474 H   0  0  0  0  0  0  0  0  0  0  0  0
    1.2034   -1.5098   -5.8500 H   0  0  0  0  0  0  0  0  0  0  0  0
  1  2  2  0  0  0  0
  1  3  1  0  0  0  0
  1  4  1  0  0  0  0
  3  5  1  0  0  0  0
  5  6  1  0  0  0  0
  5  7  1  0  0  0  0
  5  8  1  0  0  0  0
M  END
