
 OpenBabel01072110353D

 11 10  0  0  0  0  0  0  0  0999 V2000
   -0.9693    0.0334    1.4293 C   0  0  0  0  0  0  0  0  0  0  0  0
   -0.8495   -1.4263    1.8590 C   0  0  0  0  0  0  0  0  0  0  0  0
    0.5476   -1.8479    1.8465 N   0  0  0  0  0  0  0  0  0  0  0  0
   -1.4274   -2.0608    1.1521 H   0  0  0  0  0  0  0  0  0  0  0  0
   -1.2725   -1.5551    2.8806 H   0  0  0  0  0  0  0  0  0  0  0  0
    1.0777   -1.3024    2.5643 H   0  0  0  0  0  0  0  0  0  0  0  0
    0.5917   -2.8568    2.1153 H   0  0  0  0  0  0  0  0  0  0  0  0
   -2.3183    0.4081    1.4317 O   0  0  0  0  0  0  0  0  0  0  0  0
   -0.5483    0.1381    0.4035 H   0  0  0  0  0  0  0  0  0  0  0  0
   -0.4025    0.6758    2.1396 H   0  0  0  0  0  0  0  0  0  0  0  0
   -2.3537    1.3141    1.0290 H   0  0  0  0  0  0  0  0  0  0  0  0
  1  2  1  0  0  0  0
  1  8  1  0  0  0  0
  1  9  1  0  0  0  0
  1 10  1  0  0  0  0
  2  3  1  0  0  0  0
  2  4  1  0  0  0  0
  2  5  1  0  0  0  0
  3  6  1  0  0  0  0
  3  7  1  0  0  0  0
  8 11  1  0  0  0  0
M  END
