
 OpenBabel07272115083D

 14 14  0  0  0  0  0  0  0  0999 V2000
    4.1793   -0.2507   -0.1788 C   0  0  0  0  0  0  0  0  0  0  0  0
    2.9061    0.3350   -0.0707 C   0  0  0  0  0  0  0  0  0  0  0  0
    4.3145   -1.6402   -0.1827 C   0  0  0  0  0  0  0  0  0  0  0  0
    1.7892   -0.5121    0.0320 C   0  0  0  0  0  0  0  0  0  0  0  0
    2.7408    1.8088   -0.0644 C   0  0  0  0  0  0  0  0  0  0  0  0
    3.1752   -2.4385   -0.0783 C   0  0  0  0  0  0  0  0  0  0  0  0
    1.9489   -1.8627    0.0257 N   0  0  0  0  0  0  0  0  0  0  0  0
    1.5092    2.3537    0.0415 O   0  0  0  0  0  0  0  0  0  0  0  0
    3.7165    2.5402   -0.1547 O   0  0  0  0  0  0  0  0  0  0  0  0
    5.0678    0.3629   -0.2601 H   0  0  0  0  0  0  0  0  0  0  0  0
    5.2936   -2.0940   -0.2657 H   0  0  0  0  0  0  0  0  0  0  0  0
    0.7904   -0.1043    0.1171 H   0  0  0  0  0  0  0  0  0  0  0  0
    3.2653   -3.5165   -0.0799 H   0  0  0  0  0  0  0  0  0  0  0  0
    1.3791    3.3127    0.0480 H   0  0  0  0  0  0  0  0  0  0  0  0
  1  3  1  0  0  0  0
  1 10  1  0  0  0  0
  2  5  1  0  0  0  0
  2  1  2  0  0  0  0
  2  4  1  0  0  0  0
  3  6  2  0  0  0  0
  3 11  1  0  0  0  0
  4 12  1  0  0  0  0
  5  8  1  0  0  0  0
  5  9  2  0  0  0  0
  6  7  1  0  0  0  0
  6 13  1  0  0  0  0
  7  4  2  0  0  0  0
  8 14  1  0  0  0  0
M  END
