
 OpenBabel01072111153D

 11 10  0  0  0  0  0  0  0  0999 V2000
   -0.9202   -0.9717    1.7032 C   0  0  0  0  0  0  0  0  0  0  0  0
    0.3388   -0.5201    0.9471 C   0  0  0  0  0  0  0  0  0  0  0  0
    1.6380   -1.0307    1.5891 C   0  0  0  0  0  0  0  0  0  0  0  0
   -1.0049   -2.3526    1.7273 F   0  0  0  0  0  0  0  0  0  0  0  0
   -2.0419   -0.4733    1.0650 F   0  0  0  0  0  0  0  0  0  0  0  0
   -0.9052   -0.4959    3.0024 F   0  0  0  0  0  0  0  0  0  0  0  0
    0.2700   -0.9868   -0.3551 F   0  0  0  0  0  0  0  0  0  0  0  0
    0.3693    0.8642    0.9161 F   0  0  0  0  0  0  0  0  0  0  0  0
    2.7201   -0.5831    0.8526 F   0  0  0  0  0  0  0  0  0  0  0  0
    1.7606   -0.5574    2.8835 F   0  0  0  0  0  0  0  0  0  0  0  0
    1.6609   -2.4141    1.6084 F   0  0  0  0  0  0  0  0  0  0  0  0
  1  2  1  0  0  0  0
  1  4  1  0  0  0  0
  1  5  1  0  0  0  0
  1  6  1  0  0  0  0
  2  3  1  0  0  0  0
  2  7  1  0  0  0  0
  2  8  1  0  0  0  0
  3  9  1  0  0  0  0
  3 10  1  0  0  0  0
  3 11  1  0  0  0  0
M  END
