
 OpenBabel07282118573D

 16 16  0  0  0  0  0  0  0  0999 V2000
    7.4795    4.1086   -0.7031 O   0  0  0  0  0  0  0  0  0  0  0  0
    7.7887    2.7938   -0.7320 C   0  0  0  0  0  0  0  0  0  0  0  0
    8.9483    2.4530   -0.9173 O   0  0  0  0  0  0  0  0  0  0  0  0
    6.7288    1.7734   -0.5400 C   0  0  0  0  0  0  0  0  0  0  0  0
    7.0388    0.4008   -0.5677 C   0  0  0  0  0  0  0  0  0  0  0  0
    5.3949    2.1655   -0.3270 C   0  0  0  0  0  0  0  0  0  0  0  0
    6.0358   -0.5563   -0.3861 C   0  0  0  0  0  0  0  0  0  0  0  0
    4.7120   -0.1592   -0.1748 C   0  0  0  0  0  0  0  0  0  0  0  0
    3.7570   -1.0950   -0.0015 O   0  0  0  0  0  0  0  0  0  0  0  0
    4.3942    1.2058   -0.1458 C   0  0  0  0  0  0  0  0  0  0  0  0
    8.1555    4.7902   -0.8259 H   0  0  0  0  0  0  0  0  0  0  0  0
    8.0559    0.0660   -0.7295 H   0  0  0  0  0  0  0  0  0  0  0  0
    5.1230    3.2132   -0.3001 H   0  0  0  0  0  0  0  0  0  0  0  0
    6.2889   -1.6089   -0.4098 H   0  0  0  0  0  0  0  0  0  0  0  0
    2.8293   -0.8623    0.1474 H   0  0  0  0  0  0  0  0  0  0  0  0
    3.3724    1.5250    0.0170 H   0  0  0  0  0  0  0  0  0  0  0  0
  1  2  1  0  0  0  0
  1 11  1  0  0  0  0
  2  3  2  0  0  0  0
  2  4  1  0  0  0  0
  4  5  1  0  0  0  0
  4  6  2  0  0  0  0
  5  7  2  0  0  0  0
  5 12  1  0  0  0  0
  6 13  1  0  0  0  0
  7  8  1  0  0  0  0
  7 14  1  0  0  0  0
  8  9  1  0  0  0  0
  8 10  2  0  0  0  0
  9 15  1  0  0  0  0
 10  6  1  0  0  0  0
 10 16  1  0  0  0  0
M  END
