
 OpenBabel01072111193D

  5  4  0  0  0  0  0  0  0  0999 V2000
    0.0334    1.7923   -0.0230 Cl  0  0  0  0  0  0  0  0  0  0  0  0
    1.3635    1.7818    1.0453 F   0  0  0  0  0  0  0  0  0  0  0  0
    0.1148    3.0184   -0.9228 O   0  0  0  0  0  0  0  0  0  0  0  0
   -1.2610    1.8356    0.7785 O   0  0  0  0  0  0  0  0  0  0  0  0
    0.0593    0.5322   -0.8781 O   0  0  0  0  0  0  0  0  0  0  0  0
  1  2  1  0  0  0  0
  1  3  2  0  0  0  0
  1  4  2  0  0  0  0
  1  5  2  0  0  0  0
M  END
