
 OpenBabel01072111313D

 16 16  0  0  0  0  0  0  0  0999 V2000
   -2.1749   -0.1816   -0.0690 C   0  0  0  0  0  0  0  0  0  0  0  0
   -1.5888   -1.5670   -0.3580 C   0  0  0  0  0  0  0  0  0  0  0  0
    0.0785    0.1965    0.8949 C   0  0  0  0  0  0  0  0  0  0  0  0
    0.5217   -0.2724   -0.4964 C   0  0  0  0  0  0  0  0  0  0  0  0
   -0.2336   -1.4630   -0.9339 N   0  0  0  0  0  0  0  0  0  0  0  0
   -2.2403   -2.1219   -1.0657 H   0  0  0  0  0  0  0  0  0  0  0  0
   -1.5554   -2.1365    0.5985 H   0  0  0  0  0  0  0  0  0  0  0  0
    0.2912   -2.3353   -0.6893 H   0  0  0  0  0  0  0  0  0  0  0  0
    1.6114   -0.4940   -0.5029 H   0  0  0  0  0  0  0  0  0  0  0  0
    0.3430    0.5539   -1.2179 H   0  0  0  0  0  0  0  0  0  0  0  0
   -1.3549    0.5493    0.9172 N   0  0  0  0  0  0  0  0  0  0  0  0
    0.6862    1.0679    1.2234 H   0  0  0  0  0  0  0  0  0  0  0  0
    0.2584   -0.6292    1.6167 H   0  0  0  0  0  0  0  0  0  0  0  0
   -1.4784    1.5748    0.7461 H   0  0  0  0  0  0  0  0  0  0  0  0
   -3.2108   -0.2742    0.3206 H   0  0  0  0  0  0  0  0  0  0  0  0
   -2.2163    0.3846   -1.0270 H   0  0  0  0  0  0  0  0  0  0  0  0
  1  2  1  0  0  0  0
  1 15  1  0  0  0  0
  1 16  1  0  0  0  0
  2  5  1  0  0  0  0
  2  6  1  0  0  0  0
  2  7  1  0  0  0  0
  3  4  1  0  0  0  0
  3 11  1  0  0  0  0
  3 12  1  0  0  0  0
  3 13  1  0  0  0  0
  4  9  1  0  0  0  0
  4 10  1  0  0  0  0
  5  4  1  0  0  0  0
  5  8  1  0  0  0  0
 11  1  1  0  0  0  0
 11 14  1  0  0  0  0
M  END
