
 OpenBabel01072111363D

  5  4  0  0  0  0  0  0  0  0999 V2000
   -0.4518    0.9696   -0.0015 Si  0  0  0  0  0  0  0  0  0  0  0  0
    1.0135    0.8466   -0.0026 H   0  0  0  0  0  0  0  0  0  0  0  0
   -0.8825    1.7096   -1.1970 H   0  0  0  0  0  0  0  0  0  0  0  0
   -0.8821    1.6931    1.2043 H   0  0  0  0  0  0  0  0  0  0  0  0
   -1.0562   -0.3710   -0.0106 H   0  0  0  0  0  0  0  0  0  0  0  0
  1  2  1  0  0  0  0
  1  3  1  0  0  0  0
  1  4  1  0  0  0  0
  1  5  1  0  0  0  0
M  END
