
 OpenBabel07272115303D

 18 18  0  0  0  0  0  0  0  0999 V2000
    0.7113    2.9979    0.1047 O   0  0  0  0  0  0  0  0  0  0  0  0
    1.4826    1.9315   -0.2004 C   0  0  0  0  0  0  0  0  0  0  0  0
    0.9551    0.9020   -0.5966 O   0  0  0  0  0  0  0  0  0  0  0  0
    2.9571    2.0109   -0.0552 C   0  0  0  0  0  0  0  0  0  0  0  0
    3.5635    3.1936    0.4000 C   0  0  0  0  0  0  0  0  0  0  0  0
    3.7705    0.9081   -0.3693 C   0  0  0  0  0  0  0  0  0  0  0  0
    4.9523    3.2726    0.5383 C   0  0  0  0  0  0  0  0  0  0  0  0
    5.1593    0.9870   -0.2311 C   0  0  0  0  0  0  0  0  0  0  0  0
    5.7657    2.1697    0.2241 C   0  0  0  0  0  0  0  0  0  0  0  0
    7.2402    2.2491    0.3694 C   0  0  0  0  0  0  0  0  0  0  0  0
    8.0115    1.1827    0.0645 O   0  0  0  0  0  0  0  0  0  0  0  0
    7.7677    3.2786    0.7656 O   0  0  0  0  0  0  0  0  0  0  0  0
   -0.2520    2.9672    0.0171 H   0  0  0  0  0  0  0  0  0  0  0  0
    2.9655    4.0609    0.6504 H   0  0  0  0  0  0  0  0  0  0  0  0
    3.3340   -0.0179   -0.7227 H   0  0  0  0  0  0  0  0  0  0  0  0
    5.3888    4.1986    0.8916 H   0  0  0  0  0  0  0  0  0  0  0  0
    5.7573    0.1197   -0.4815 H   0  0  0  0  0  0  0  0  0  0  0  0
    8.9748    1.2133    0.1521 H   0  0  0  0  0  0  0  0  0  0  0  0
  1  2  1  0  0  0  0
  1 13  1  0  0  0  0
  2  3  2  0  0  0  0
  2  4  1  0  0  0  0
  4  5  2  0  0  0  0
  5  7  1  0  0  0  0
  5 14  1  0  0  0  0
  6  4  1  0  0  0  0
  6 15  1  0  0  0  0
  7  9  2  0  0  0  0
  7 16  1  0  0  0  0
  8  6  2  0  0  0  0
  8 17  1  0  0  0  0
  9  8  1  0  0  0  0
  9 10  1  0  0  0  0
 10 11  1  0  0  0  0
 10 12  2  0  0  0  0
 11 18  1  0  0  0  0
M  END
